version 2
run nodebug-0-20180105-13:26:30-8304
attr configname nodebug
attr datetime 20180105-13:26:30
attr experiment nodebug
attr inifile omnetpp.ini
attr iterationvars ""
attr iterationvars2 $repetition=0
attr measurement ""
attr network RSUExampleScenario
attr processid 8304
attr repetition 0
attr replication #0
attr resultdir results
attr runnumber 0
attr seedset 0
param **.coreDebug false
param **.debug false
param *.**.nic.mac1609_4.bitrate 18Mbps
param *.**.nic.mac1609_4.txPower 20mW
param *.**.nic.mac1609_4.useServiceChannel false
param *.**.nic.phy80211p.analogueModels "xmldoc(\"config.xml\")"
param *.**.nic.phy80211p.decider "xmldoc(\"config.xml\")"
param *.**.nic.phy80211p.sensitivity -89dBm
param *.**.nic.phy80211p.thermalNoise -110dBm
param *.**.nic.phy80211p.usePropagationDelay true
param *.**.nic.phy80211p.useThermalNoise true
param *.annotations.draw false
param *.connectionManager.alpha 2.0
param *.connectionManager.carrierFrequency "5.890e9 Hz"
param *.connectionManager.pMax 20mW
param *.connectionManager.sat -89dBm
param *.connectionManager.sendDirect true
param *.manager.autoShutdown true
param *.manager.host "\"localhost\""
param *.manager.launchConfig "xmldoc(\"erlangen.launchd.xml\")"
param *.manager.margin 25
param *.manager.moduleDisplayString "\"\""
param *.manager.moduleName "\"node\""
param *.manager.moduleType "\"org.car2x.veins.nodes.Car\""
param *.manager.port 9999
param *.manager.updateInterval 0.1s
param *.node[*0].veinsmobility.accidentCount 1
param *.node[*0].veinsmobility.accidentDuration 30s
param *.node[*0].veinsmobility.accidentStart 75s
param *.node[*].appl.beaconInterval 1s
param *.node[*].appl.beaconPriority 3
param *.node[*].appl.dataOnSch false
param *.node[*].appl.dataPriority 2
param *.node[*].appl.debug false
param *.node[*].appl.headerLength "256 bit"
param *.node[*].appl.maxOffset 0.005s
param *.node[*].appl.sendBeacons false
param *.node[*].appl.sendData true
param *.node[*].applType "\"TraCIDemo11p\""
param *.node[*].mobilityType "\"TraCIMobility\""
param *.node[*].mobilityType.debug true
param *.node[*].veinsmobility.x 0
param *.node[*].veinsmobility.y 0
param *.node[*].veinsmobility.z 1.895
param *.node[*].veinsmobilityType "\"org.car2x.veins.modules.mobility.traci.TraCIMobility\""
param *.node[*].veinsmobilityType.debug true
param *.obstacles.debug false
param *.obstacles.obstacles "xmldoc(\"config.xml\", \"//AnalogueModel[@type='SimpleObstacleShadowing']/obstacles\")"
param *.playgroundSizeX 2500m
param *.playgroundSizeY 2500m
param *.playgroundSizeZ 50m
param *.rsu[*].appl.beaconInterval 1s
param *.rsu[*].appl.beaconPriority 3
param *.rsu[*].appl.dataOnSch false
param *.rsu[*].appl.dataPriority 2
param *.rsu[*].appl.debug false
param *.rsu[*].appl.headerLength "256 bit"
param *.rsu[*].appl.maxOffset 0.005s
param *.rsu[*].appl.sendBeacons false
param *.rsu[*].appl.sendData true
param *.rsu[*].applType "\"TraCIDemoRSU11p\""
param *.rsu[0].mobility.x 2000
param *.rsu[0].mobility.y 2000
param *.rsu[0].mobility.z 3
param *.world.use2D false
param *.world.useTorus false

vector 4  RSUExampleScenario.node[0].veinsmobility  posx  ETV
vector 5  RSUExampleScenario.node[0].veinsmobility  posy  ETV
vector 6  RSUExampleScenario.node[0].veinsmobility  speed  ETV
vector 7  RSUExampleScenario.node[0].veinsmobility  acceleration  ETV
vector 8  RSUExampleScenario.node[0].veinsmobility  co2emission  ETV
vector 11  RSUExampleScenario.node[1].veinsmobility  posx  ETV
vector 12  RSUExampleScenario.node[1].veinsmobility  posy  ETV
vector 13  RSUExampleScenario.node[1].veinsmobility  speed  ETV
vector 14  RSUExampleScenario.node[1].veinsmobility  acceleration  ETV
vector 15  RSUExampleScenario.node[1].veinsmobility  co2emission  ETV
vector 18  RSUExampleScenario.node[2].veinsmobility  posx  ETV
vector 19  RSUExampleScenario.node[2].veinsmobility  posy  ETV
vector 20  RSUExampleScenario.node[2].veinsmobility  speed  ETV
vector 21  RSUExampleScenario.node[2].veinsmobility  acceleration  ETV
vector 22  RSUExampleScenario.node[2].veinsmobility  co2emission  ETV
vector 25  RSUExampleScenario.node[3].veinsmobility  posx  ETV
vector 26  RSUExampleScenario.node[3].veinsmobility  posy  ETV
vector 27  RSUExampleScenario.node[3].veinsmobility  speed  ETV
vector 28  RSUExampleScenario.node[3].veinsmobility  acceleration  ETV
vector 29  RSUExampleScenario.node[3].veinsmobility  co2emission  ETV
vector 32  RSUExampleScenario.node[4].veinsmobility  posx  ETV
vector 33  RSUExampleScenario.node[4].veinsmobility  posy  ETV
vector 34  RSUExampleScenario.node[4].veinsmobility  speed  ETV
vector 35  RSUExampleScenario.node[4].veinsmobility  acceleration  ETV
vector 36  RSUExampleScenario.node[4].veinsmobility  co2emission  ETV
vector 39  RSUExampleScenario.node[5].veinsmobility  posx  ETV
vector 40  RSUExampleScenario.node[5].veinsmobility  posy  ETV
vector 41  RSUExampleScenario.node[5].veinsmobility  speed  ETV
vector 42  RSUExampleScenario.node[5].veinsmobility  acceleration  ETV
vector 43  RSUExampleScenario.node[5].veinsmobility  co2emission  ETV
vector 46  RSUExampleScenario.node[6].veinsmobility  posx  ETV
vector 47  RSUExampleScenario.node[6].veinsmobility  posy  ETV
vector 48  RSUExampleScenario.node[6].veinsmobility  speed  ETV
vector 49  RSUExampleScenario.node[6].veinsmobility  acceleration  ETV
vector 50  RSUExampleScenario.node[6].veinsmobility  co2emission  ETV
vector 53  RSUExampleScenario.node[7].veinsmobility  posx  ETV
vector 54  RSUExampleScenario.node[7].veinsmobility  posy  ETV
vector 55  RSUExampleScenario.node[7].veinsmobility  speed  ETV
vector 56  RSUExampleScenario.node[7].veinsmobility  acceleration  ETV
vector 57  RSUExampleScenario.node[7].veinsmobility  co2emission  ETV
vector 60  RSUExampleScenario.node[8].veinsmobility  posx  ETV
vector 61  RSUExampleScenario.node[8].veinsmobility  posy  ETV
vector 62  RSUExampleScenario.node[8].veinsmobility  speed  ETV
vector 63  RSUExampleScenario.node[8].veinsmobility  acceleration  ETV
vector 64  RSUExampleScenario.node[8].veinsmobility  co2emission  ETV
vector 67  RSUExampleScenario.node[9].veinsmobility  posx  ETV
vector 68  RSUExampleScenario.node[9].veinsmobility  posy  ETV
vector 69  RSUExampleScenario.node[9].veinsmobility  speed  ETV
vector 70  RSUExampleScenario.node[9].veinsmobility  acceleration  ETV
vector 71  RSUExampleScenario.node[9].veinsmobility  co2emission  ETV
vector 74  RSUExampleScenario.node[10].veinsmobility  posx  ETV
vector 75  RSUExampleScenario.node[10].veinsmobility  posy  ETV
vector 76  RSUExampleScenario.node[10].veinsmobility  speed  ETV
vector 77  RSUExampleScenario.node[10].veinsmobility  acceleration  ETV
vector 78  RSUExampleScenario.node[10].veinsmobility  co2emission  ETV
vector 81  RSUExampleScenario.node[11].veinsmobility  posx  ETV
vector 82  RSUExampleScenario.node[11].veinsmobility  posy  ETV
vector 83  RSUExampleScenario.node[11].veinsmobility  speed  ETV
vector 84  RSUExampleScenario.node[11].veinsmobility  acceleration  ETV
vector 85  RSUExampleScenario.node[11].veinsmobility  co2emission  ETV
vector 88  RSUExampleScenario.node[12].veinsmobility  posx  ETV
vector 89  RSUExampleScenario.node[12].veinsmobility  posy  ETV
vector 90  RSUExampleScenario.node[12].veinsmobility  speed  ETV
vector 91  RSUExampleScenario.node[12].veinsmobility  acceleration  ETV
vector 92  RSUExampleScenario.node[12].veinsmobility  co2emission  ETV
vector 95  RSUExampleScenario.node[13].veinsmobility  posx  ETV
vector 96  RSUExampleScenario.node[13].veinsmobility  posy  ETV
vector 97  RSUExampleScenario.node[13].veinsmobility  speed  ETV
vector 98  RSUExampleScenario.node[13].veinsmobility  acceleration  ETV
vector 99  RSUExampleScenario.node[13].veinsmobility  co2emission  ETV
vector 102  RSUExampleScenario.node[14].veinsmobility  posx  ETV
vector 103  RSUExampleScenario.node[14].veinsmobility  posy  ETV
vector 104  RSUExampleScenario.node[14].veinsmobility  speed  ETV
vector 105  RSUExampleScenario.node[14].veinsmobility  acceleration  ETV
vector 106  RSUExampleScenario.node[14].veinsmobility  co2emission  ETV
4	2	0.1	2415.8694684898
4	3	0.2	2415.8694684898
4	4	0.3	2415.845732873
4	5	0.4	2415.7990189458
4	6	0.5	2415.7304428896
4	7	0.6	2415.6413865678
4	8	0.7	2415.5313444568
4	9	0.8	2415.4026644597
4	10	0.9	2415.253749828
4	11	1	2415.0877721626
4	12	1.1	2414.9014220152
4	13	1.2	2414.6972375255
4	14	1.3	2414.476029961
4	15	1.4	2414.2351075599
4	16	1.5	2413.9751195706
4	17	1.6	2413.6943569791
4	18	1.7	2413.400071073
4	19	1.8	2413.0820719008
4	20	1.9	2412.7514266602
4	21	2	2412.3997032359
4	22	2.1	2412.0282535021
4	23	2.2	2411.638227237
4	24	2.3	2411.2334568062
4	25	2.4	2410.8141916771
4	26	2.5	2410.3769751566
4	27	2.6	2409.9212103181
4	28	2.7	2409.4479718177
4	29	2.8	2408.9551210204
4	30	2.9	2408.449159647
4	31	3	2407.9289953412
4	32	3.1	2407.434272861
4	33	3.2	2407.0121586007
4	34	3.3	2406.5725741392
4	35	3.4	2406.114908381
4	36	3.5	2405.6465809684
4	37	3.6	2405.1670944914
4	38	3.7	2404.677287863
4	39	3.8	2404.1781529811
4	40	3.9	2403.6680508436
4	41	4	2403.143897435
4	42	4.1	2402.6086066293
4	43	4.2	2402.05613007
4	44	4.3	2401.4912319428
4	45	4.4	2400.9093771066
4	46	4.5	2400.3178839575
4	47	4.6	2399.7128908854
4	48	4.7	2399.0934189598
4	49	4.8	2398.4580972631
4	50	4.9	2397.8115806727
4	51	5	2397.1509641412
4	52	5.1	2396.4772731521
4	53	5.2	2395.7854878188
4	54	5.3	2395.0810773844
4	55	5.4	2394.3639912542
4	56	5.5	2393.6342736162
4	57	5.6	2392.8949092553
4	58	5.7	2392.1435059916
4	59	5.8	2391.3771201536
4	60	5.9	2390.5964597668
4	61	6	2389.8039048777
4	62	6.1	2388.9936340754
4	63	6.2	2388.1711868861
4	64	6.3	2387.3365986652
4	65	6.4	2386.4870154882
4	66	6.5	2385.6220471597
4	67	6.6	2384.7417815286
4	68	6.7	2383.8472556834
4	69	6.8	2382.9432219474
4	70	6.9	2382.0228299268
4	71	7	2381.0932620018
4	72	7.1	2380.1477414317
4	73	7.2	2379.1882903115
4	74	7.3	2378.213918874
4	75	7.4	2377.2442580678
4	76	7.5	2376.2696967865
4	77	7.6	2375.3025458929
4	78	7.7	2374.3342207012
4	79	7.8	2373.3640858366
4	80	7.9	2372.3891401981
4	81	8	2371.4213374149
4	82	8.1	2370.4544348472
4	83	8.2	2369.4827319705
4	84	8.3	2368.5072665688
4	85	8.4	2367.5403898078
4	86	8.5	2366.5672711462
4	87	8.6	2365.5977373691
4	88	8.7	2364.6256975201
4	89	8.8	2363.6518544486
4	90	8.9	2362.6812059031
4	91	9	2361.7100310014
4	92	9.1	2360.735065655
4	93	9.2	2359.7600014166
4	94	9.3	2358.7870875963
4	95	9.4	2357.8124680001
4	96	9.5	2356.8392878361
4	97	9.6	2355.8688211417
4	98	9.7	2354.9005685279
4	99	9.8	2353.9309357069
4	100	9.9	2352.9618269132
4	101	10	2351.9882754667
4	102	10.1	2351.0178592684
4	103	10.2	2350.0440733647
4	104	10.3	2349.0723336472
4	105	10.4	2348.1028986715
4	106	10.5	2347.1345077642
4	107	10.6	2346.1667315555
4	108	10.7	2345.1989611201
4	109	10.8	2344.2297615469
4	110	10.9	2343.2626701327
4	111	11	2342.3847146237
4	112	11.1	2341.5298487653
4	113	11.2	2340.6801122508
4	114	11.3	2339.8300383728
4	115	11.4	2338.9761030338
4	116	11.5	2338.125644639
4	117	11.6	2337.2752211372
4	118	11.7	2336.4254200418
4	119	11.8	2335.5775750653
4	120	11.9	2335.1766324174
4	121	12	2334.9508370765
4	122	12.1	2334.7235384902
4	123	12.2	2334.4975473507
4	124	12.3	2334.2703535737
4	125	12.4	2334.0439239476
4	126	12.5	2333.9218555393
4	127	12.6	2333.8249522626
4	128	12.7	2334.0238975503
4	129	12.8	2334.3675607502
4	130	12.9	2334.9585529827
4	131	13	2335.8396752452
4	132	13.1	2336.8243788907
4	133	13.2	2337.9004551717
4	134	13.3	2338.9718316504
4	135	13.4	2340.0446691305
4	136	13.5	2341.1195945346
4	137	13.6	2342.1976552898
4	138	13.7	2343.2724524199
4	139	13.8	2344.3476103322
4	140	13.9	2345.4171029442
4	141	14	2346.4443646428
4	142	14.1	2347.473535693
4	143	14.2	2348.5004524223
4	144	14.3	2349.5284320589
4	145	14.4	2350.5518074733
4	146	14.5	2351.5790538414
4	147	14.6	2352.6037801869
4	148	14.7	2353.6290049243
4	149	14.8	2354.6584186802
4	150	14.9	2355.6863431653
4	151	15	2356.7129521481
4	152	15.1	2357.7419379568
4	153	15.2	2358.7670004739
4	154	15.3	2359.7910119202
4	155	15.4	2360.8196100669
4	156	15.5	2362.0968416746
4	157	15.6	2363.4659402466
4	158	15.7	2364.8323048597
4	159	15.8	2366.1995619385
4	160	15.9	2367.5683790356
4	161	16	2368.9404264087
4	162	16.1	2370.3022435491
4	163	16.2	2371.6645327634
4	164	16.3	2373.0309270581
4	165	16.4	2374.4017402335
4	166	16.5	2375.7636975684
4	167	16.6	2377.1341043698
4	168	16.7	2378.5053579459
4	169	16.8	2379.8812833446
4	170	16.9	2381.253674782
4	171	17	2382.6232753416
4	172	17.1	2383.9995112187
4	173	17.2	2385.367127637
4	174	17.3	2386.7367980692
4	175	17.4	2388.1141973928
4	176	17.5	2389.491717843
4	177	17.6	2390.8691737409
4	178	17.7	2392.2416763859
4	179	17.8	2393.6143963155
4	180	17.9	2394.9459738561
4	181	18	2396.2552141306
4	182	18.1	2397.5196581341
4	183	18.2	2398.7508010969
4	184	18.3	2399.9479894829
4	185	18.4	2401.1213576156
4	186	18.5	2402.2572649684
4	187	18.6	2403.3626730521
4	188	18.7	2404.438120375
4	189	18.8	2405.472079738
4	190	18.9	2406.4840913413
4	191	19	2407.4584904014
4	192	19.1	2408.4006939746
4	193	19.2	2409.3162250816
4	194	19.3	2410.1965929115
4	195	19.4	2411.0462252613
4	196	19.5	2411.8702658447
4	197	19.6	2412.6610406707
4	198	19.7	2413.4170894182
4	199	19.8	2414.1465820447
4	200	19.9	2414.8473560056
4	201	20	2415.5171514131
4	202	20.1	2416.1646603449
4	203	20.2	2416.7817867885
4	204	20.3	2417.3815070209
4	205	20.4	2417.9505472238
4	206	20.5	2418.4952366747
4	207	20.6	2419.0182788767
4	208	20.7	2419.5078221419
4	209	20.8	2419.9760937251
4	210	20.9	2420.4159648516
4	211	21	2420.842814099
4	212	21.1	2421.2380997778
4	213	21.2	2421.6135166301
4	214	21.3	2421.9739720166
4	215	21.4	2422.3112631843
4	216	21.5	2422.674998094
4	217	21.6	2423.0646872644
4	218	21.7	2423.4803306954
4	219	21.8	2423.9219283874
4	220	21.9	2424.3894803399
4	221	22	2424.8829865534
4	222	22.1	2425.4024470274
4	223	22.2	2425.9478617624
4	224	22.3	2426.519230758
4	225	22.4	2427.106903873
4	226	22.5	2427.7161783557
4	227	22.6	2428.3313605435
4	228	22.7	2428.9179967258
4	229	22.8	2429.4993878017
4	230	22.9	2429.9600474931
4	231	23	2430.3318777283
4	232	23.1	2430.5642199855
4	233	23.2	2430.7220807949
4	234	23.3	2430.8373252758
4	235	23.4	2430.9547150463
4	236	23.5	2431.0750134041
4	237	23.6	2431.197473887
4	238	23.7	2431.3233076406
4	239	23.8	2431.452462014
4	240	23.9	2431.5848168886
4	241	24	2431.719307896
4	242	24.1	2431.857510546
4	243	24.2	2431.9988595707
4	244	24.3	2432.1422341974
4	245	24.4	2432.2882479713
4	246	24.5	2432.436231941
4	247	24.6	2432.5873204267
4	248	24.7	2432.7415249051
4	249	24.8	2432.8985779153
4	250	24.9	2433.05930999
4	251	25	2433.223361932
4	252	25.1	2433.3910067528
4	253	25.2	2433.5607782895
4	254	25.3	2433.7326829103
4	255	25.4	2433.9074719464
4	256	25.5	2434.0854281015
4	257	25.6	2434.2659613986
4	258	25.7	2434.4491641838
4	259	25.8	2434.6351164894
4	260	25.9	2434.8243039791
4	261	26	2435.0154743778
4	262	26.1	2435.2086441015
4	263	26.2	2435.4055593676
4	264	26.3	2435.6046792922
4	265	26.4	2435.8065533967
4	266	26.5	2436.010591699
4	267	26.6	2436.2172532058
4	268	26.7	2436.4268182432
4	269	26.8	2436.6362110727
4	270	26.9	2436.8463277674
4	271	27	2437.055858879
4	272	27.1	2437.2654259532
4	273	27.2	2437.4741317814
4	274	27.3	2437.6836526921
4	275	27.4	2437.8491493638
4	276	27.5	2438.0012090869
4	277	27.6	2438.153106533
4	278	27.7	2438.281286414
4	279	27.8	2438.3783121572
4	280	27.9	2438.474574203
4	281	28	2438.5714695867
4	282	28.1	2438.6622200004
4	283	28.2	2438.7391524023
4	284	28.3	2438.8163838333
4	285	28.4	2438.8937991902
4	286	28.5	2438.9725259502
4	287	28.6	2439.0591997922
4	288	28.7	2439.145601546
4	289	28.8	2439.2321971096
4	290	28.9	2439.3297908985
4	291	29	2439.4305966991
4	292	29.1	2439.5314866065
4	293	29.2	2439.6323426163
4	294	29.3	2439.7334660294
4	295	29.4	2439.8340825645
4	296	29.5	2439.9347911894
4	297	29.6	2440.0357513294
4	298	29.7	2440.1372641915
4	299	29.8	2440.2382384001
4	300	29.9	2440.3394228849
4	301	30	2440.4408823649
4	302	30.1	2440.5417792661
4	303	30.2	2440.642987023
4	304	30.3	2440.743952136
4	305	30.4	2440.8450363552
4	306	30.5	2440.9461419737
4	307	30.6	2441.0469868025
4	308	30.7	2441.1477005642
4	309	30.8	2441.2484402059
4	310	30.9	2441.3497097373
4	311	31	2441.4510564178
4	312	31.1	2441.5518293041
4	313	31.2	2441.6526755894
4	314	31.3	2441.7535663685
4	315	31.4	2441.8546864749
4	316	31.5	2441.9557958259
4	317	31.6	2442.0570037381
4	318	31.7	2442.1584266847
4	319	31.8	2442.2594939589
4	320	31.9	2442.3607412904
4	321	32	2442.4618202475
4	322	32.1	2442.5624475764
4	323	32.2	2442.6638897449
4	324	32.3	2442.7652708177
4	325	32.4	2442.8658853787
4	326	32.5	2442.9672163585
4	327	32.6	2443.0685571125
4	328	32.7	2443.1693534404
4	329	32.8	2443.2702015326
4	330	32.9	2443.3713189991
4	331	33	2443.4725684135
4	332	33.1	2443.5735475319
4	333	33.2	2443.6743565928
4	334	33.3	2443.7758007002
4	335	33.4	2443.8773274119
4	336	33.5	2443.9788347038
4	337	33.6	2444.0796213608
4	338	33.7	2444.1809394058
4	339	33.8	2444.2815977533
4	340	33.9	2444.3826894464
4	341	34	2444.4839858058
4	342	34.1	2444.5849311245
4	343	34.2	2444.6860191713
4	344	34.3	2444.7871288334
4	345	34.4	2444.8884488638
4	346	34.5	2444.9891319606
4	347	34.6	2445.0904057457
4	348	34.7	2445.1913390371
4	349	34.8	2445.2920633395
4	350	34.9	2445.3932655636
4	351	35	2445.4943058783
4	352	35.1	2445.5950808151
4	353	35.2	2445.6960763516
4	354	35.3	2445.7970080685
4	355	35.4	2445.8980232751
4	356	35.5	2445.9986280577
4	357	35.6	2446.0992627903
4	358	35.7	2446.2004881835
4	359	35.8	2446.3018532812
4	360	35.9	2446.4030467777
4	361	36	2446.5036516836
4	362	36.1	2446.6046263459
4	363	36.2	2446.7058200855
4	364	36.3	2446.8066925615
4	365	36.4	2446.9073562657
4	366	36.5	2447.0081126924
4	367	36.6	2447.1092907148
4	368	36.7	2447.2101142558
4	369	36.8	2447.3108818324
4	370	36.9	2447.412369941
4	371	37	2447.512979334
4	372	37.1	2447.6140945138
4	373	37.2	2447.715293519
4	374	37.3	2447.8162341121
4	375	37.4	2447.917233568
4	376	37.5	2448.017837273
4	377	37.6	2448.1185095144
4	378	37.7	2448.219168473
4	379	37.8	2448.3201032943
4	380	37.9	2448.4208844727
4	381	38	2448.5221451975
4	382	38.1	2448.6233097685
4	383	38.2	2448.724702314
4	384	38.3	2448.8255345096
4	385	38.4	2448.9263995326
4	386	38.5	2449.0270244109
4	387	38.6	2449.1277404869
4	388	38.7	2449.228989078
4	389	38.8	2449.3300277296
4	390	38.9	2449.4311680729
4	391	39	2449.5324252953
4	392	39.1	2449.6332776411
4	393	39.2	2449.7342969255
4	394	39.3	2449.8352860565
4	395	39.4	2449.9363356365
4	396	39.5	2450.0373710068
4	397	39.6	2450.1388486278
4	398	39.7	2450.2402376529
4	399	39.8	2450.3409023971
4	400	39.9	2450.4418034527
4	401	40	2450.5431574626
4	402	40.1	2450.6439768443
4	403	40.2	2450.566516616
4	404	40.3	2450.4556719889
4	405	40.4	2450.3440919467
4	406	40.5	2450.2332331043
4	407	40.6	2450.1224438394
4	408	40.7	2450.0108374986
4	409	40.8	2449.8993609602
4	410	40.9	2449.7878531875
4	411	41	2449.677057848
4	412	41.1	2449.5656488632
4	413	41.2	2449.4540326447
4	414	41.3	2449.3428335126
4	415	41.4	2449.2317604185
4	416	41.5	2449.1207200756
4	417	41.6	2449.0090188851
4	418	41.7	2448.8981497383
4	419	41.8	2448.7868137693
4	420	41.9	2448.6753585255
4	421	42	2448.5636877901
4	422	42.1	2448.4523300367
4	423	42.2	2448.3409051404
4	424	42.3	2448.2298931583
4	425	42.4	2448.1183957385
4	426	42.5	2448.0072318062
4	427	42.6	2447.8957384423
4	428	42.7	2447.7847342486
4	429	42.8	2447.6729795213
4	430	42.9	2447.5614036608
4	431	43	2447.4505673216
4	432	43.1	2447.3397444888
5	2	0.1	1578.0861504339
5	3	0.2	1578.0861504339
5	4	0.3	1578.0948660281
5	5	0.4	1578.1120191384
5	6	0.5	1578.1371999085
5	7	0.6	1578.1699009249
5	8	0.7	1578.2103078142
5	9	0.8	1578.2575584371
5	10	0.9	1578.3122391133
5	11	1	1578.3731852453
5	12	1.1	1578.4416120471
5	13	1.2	1578.5165875256
5	14	1.3	1578.5978137888
5	15	1.4	1578.6862792373
5	16	1.5	1578.7817454701
5	17	1.6	1578.8848400284
5	18	1.7	1578.9929002775
5	19	1.8	1579.109667914
5	20	1.9	1579.2310791202
5	21	2	1579.3602301264
5	22	2.1	1579.4966245294
5	23	2.2	1579.6398401391
5	24	2.3	1579.7884697281
5	25	2.4	1579.9424216952
5	26	2.5	1580.1029653195
5	27	2.6	1580.2703197896
5	28	2.7	1580.4440904977
5	29	2.8	1580.6250627376
5	30	2.9	1580.8108491134
5	31	3	1581.0018507317
5	32	3.1	1581.2776015159
5	33	3.2	1581.7051451085
5	34	3.3	1582.1503836084
5	35	3.4	1582.6139359707
5	36	3.5	1583.0882871207
5	37	3.6	1583.5739408657
5	38	3.7	1584.0700475015
5	39	3.8	1584.5756023731
5	40	3.9	1585.092265564
5	41	4	1585.6231607571
5	42	4.1	1586.1653365986
5	43	4.2	1586.7249192409
5	44	4.3	1587.2970832204
5	45	4.4	1587.8864220101
5	46	4.5	1588.4855230832
5	47	4.6	1589.098297718
5	48	4.7	1589.7257374367
5	49	4.8	1590.3692307901
5	50	4.9	1591.0240630284
5	51	5	1591.6931765648
5	52	5.1	1592.3755327258
5	53	5.2	1593.0762159638
5	54	5.3	1593.789686691
5	55	5.4	1594.5159961507
5	56	5.5	1595.2550995881
5	57	5.6	1596.0039738277
5	58	5.7	1596.765041816
5	59	5.8	1597.5412850883
5	60	5.9	1598.3319865121
5	61	6	1599.1347354287
5	62	6.1	1599.9554281235
5	63	6.2	1600.788453822
5	64	6.3	1601.6337767122
5	65	6.4	1602.4942874275
5	66	6.5	1603.3703811811
5	67	6.6	1604.2619689954
5	68	6.7	1605.168000442
5	69	6.8	1606.0836620722
5	70	6.9	1607.0158923911
5	71	7	1607.9574166369
5	72	7.1	1608.9150987137
5	73	7.2	1609.8868905203
5	74	7.3	1610.873794551
5	75	7.4	1611.8559273621
5	76	7.5	1612.8430236792
5	77	7.6	1613.8226142945
5	78	7.7	1614.803394312
5	79	7.8	1615.7860072795
5	80	7.9	1616.7734928969
5	81	8	1617.7537437873
5	82	8.1	1618.7330828821
5	83	8.2	1619.7172840293
5	84	8.3	1620.7052960955
5	85	8.4	1621.6846090527
5	86	8.5	1622.6702441946
5	87	8.6	1623.6522483425
5	88	8.7	1624.6367907962
5	89	8.8	1625.6231596656
5	90	8.9	1626.6062929211
5	91	9	1627.589959302
5	92	9.1	1628.5774648814
5	93	9.2	1629.5650706254
5	94	9.3	1630.5504982909
5	95	9.4	1631.5376536734
5	96	9.5	1632.5233511087
5	97	9.6	1633.5063001737
5	98	9.7	1634.4870066792
5	99	9.8	1635.4691111455
5	100	9.9	1636.4506848436
5	101	10	1637.4367583375
5	102	10.1	1638.4196562562
5	103	10.2	1639.4059672225
5	104	10.3	1640.390205685
5	105	10.4	1641.3721097605
5	106	10.5	1642.3529563388
5	107	10.6	1643.3331803121
5	108	10.7	1644.3133984376
5	109	10.8	1645.2950640833
5	110	10.9	1646.2745944541
5	111	11	1647.3416688284
5	112	11.1	1648.4360301802
5	113	11.2	1649.5238251733
5	114	11.3	1650.6120520448
5	115	11.4	1651.7052221866
5	116	11.5	1652.7939412994
5	117	11.6	1653.8826157432
5	118	11.7	1654.9704934098
5	119	11.8	1656.0558669399
5	120	11.9	1657.3438629797
5	121	12	1658.7036901442
5	122	12.1	1660.0725704357
5	123	12.2	1661.4335767766
5	124	12.3	1662.8018258661
5	125	12.4	1664.1654729433
5	126	12.5	1665.5370465266
5	127	12.6	1666.9098429484
5	128	12.7	1668.2732930332
5	129	12.8	1669.6049995385
5	130	12.9	1670.8553439928
5	131	13	1671.9096502643
5	132	13.1	1672.8800310632
5	133	13.2	1673.7490273723
5	134	13.3	1674.6142283091
5	135	13.4	1675.4806090919
5	136	13.5	1676.3486759989
5	137	13.6	1677.2192748906
5	138	13.7	1678.0872382084
5	139	13.8	1678.9554928802
5	140	13.9	1679.837752372
5	141	14	1680.7641627016
5	142	14.1	1681.6922949329
5	143	14.2	1682.6183941606
5	144	14.3	1683.5454519447
5	145	14.4	1684.4683575267
5	146	14.5	1685.3947540307
5	147	14.6	1686.3188779159
5	148	14.7	1687.2434512628
5	149	14.8	1688.1718023717
5	150	14.9	1689.0988104194
5	151	15	1690.0246321131
5	152	15.1	1690.9525972893
5	153	15.2	1691.8770243423
5	154	15.3	1692.8005035128
5	155	15.4	1693.7281190846
5	156	15.5	1694.1375016635
5	157	15.6	1694.3421386611
5	158	15.7	1694.5463670176
5	159	15.8	1694.7507287702
5	160	15.9	1694.9553236961
5	161	16	1695.1604014458
5	162	16.1	1695.3639500989
5	163	16.2	1695.5675693126
5	164	16.3	1695.7718021059
5	165	16.4	1695.976695382
5	166	16.5	1696.1802649898
5	167	16.6	1696.3840591814
5	168	16.7	1696.5472689588
5	169	16.8	1696.7110347869
5	170	16.9	1696.8743799953
5	171	17	1697.037393027
5	172	17.1	1697.2011958091
5	173	17.2	1697.3639726834
5	174	17.3	1697.5214452716
5	175	17.4	1697.6516875764
5	176	17.5	1697.7819413338
5	177	17.6	1697.9121889872
5	178	17.7	1698.0419682777
5	179	17.8	1698.171768114
5	180	17.9	1698.2976776622
5	181	18	1698.4214750733
5	182	18.1	1698.541036698
5	183	18.2	1698.6574494867
5	184	18.3	1698.7706516432
5	185	18.4	1698.8816014361
5	186	18.5	1698.9890090609
5	187	18.6	1699.0935327774
5	188	18.7	1699.1952235037
5	189	18.8	1699.2929912657
5	190	18.9	1699.3886837214
5	191	19	1699.4808196593
5	192	19.1	1699.5699112993
5	193	19.2	1699.6564808786
5	194	19.3	1699.7397255367
5	195	19.4	1699.8200639486
5	196	19.5	1699.8979824884
5	197	19.6	1699.972755529
5	198	19.7	1700.044244987
5	199	19.8	1700.113223386
5	200	19.9	1700.179486244
5	201	20	1700.2428198727
5	202	20.1	1700.3040461661
5	203	20.2	1700.362399593
5	204	20.3	1700.4191071456
5	205	20.4	1700.4729136964
5	206	20.5	1700.5244177217
5	207	20.6	1700.5738748545
5	208	20.7	1700.6201644391
5	209	20.8	1700.6644426445
5	210	20.9	1700.706035397
5	211	21	1700.7463968443
5	212	21.1	1700.7837737445
5	213	21.2	1700.8192719147
5	214	21.3	1700.8533553788
5	215	21.4	1700.8793381797
5	216	21.5	1700.9004007801
5	217	21.6	1700.9229663005
5	218	21.7	1700.9470347399
5	219	21.8	1700.9726060983
5	220	21.9	1700.9996803757
5	221	22	1701.028257573
5	222	22.1	1701.0583376894
5	223	22.2	1701.0899207257
5	224	22.3	1701.123006681
5	225	22.4	1701.2063490609
5	226	22.5	1701.3059788514
5	227	22.6	1701.4398356015
5	228	22.7	1701.7282650573
5	229	22.8	1702.0570975579
5	230	22.9	1702.5689416593
5	231	23	1703.1533922646
5	232	23.1	1703.8447521525
5	233	23.2	1704.5743282819
5	234	23.3	1705.3326955643
5	235	23.4	1706.105179945
5	236	23.5	1706.8968043076
5	237	23.6	1707.7026565531
5	238	23.7	1708.5307066357
5	239	23.8	1709.3806080846
5	240	23.9	1710.2515704576
5	241	24	1711.1365896715
5	242	24.1	1712.0460333815
5	243	24.2	1712.9761818359
5	244	24.3	1713.9196597822
5	245	24.4	1714.8805046594
5	246	24.5	1715.854314425
5	247	24.6	1716.8485534862
5	248	24.7	1717.8632973628
5	249	24.8	1718.8967860276
5	250	24.9	1719.9544848073
5	251	25	1721.0340300016
5	252	25.1	1722.1372181661
5	253	25.2	1723.2544012014
5	254	25.3	1724.3856210159
5	255	25.4	1725.5358217489
5	256	25.5	1726.7068637349
5	257	25.6	1727.8948646272
5	258	25.7	1729.1004321072
5	259	25.8	1730.3240928305
5	260	25.9	1731.5690427097
5	261	26	1732.827041138
5	262	26.1	1734.0981961433
5	263	26.2	1735.3939987198
5	264	26.3	1736.7043090714
5	265	26.4	1738.0327433273
5	266	26.5	1739.3754191045
5	267	26.6	1740.7353569008
5	268	26.7	1742.1144014057
5	269	26.8	1743.492312694
5	270	26.9	1744.8749873843
5	271	27	1746.2538086399
5	272	27.1	1747.6328665474
5	273	27.2	1749.006257019
5	274	27.3	1750.3850111477
5	275	27.4	1751.7740255846
5	276	27.5	1753.157470908
5	277	27.6	1754.5394398291
5	278	27.7	1755.9245243622
5	279	27.8	1757.3216950642
5	280	27.9	1758.7078685248
5	281	28	1760.1031620493
5	282	28.1	1761.4906543829
5	283	28.2	1762.8778417548
5	284	28.3	1764.2704209946
5	285	28.4	1765.666316648
5	286	28.5	1767.061710991
5	287	28.6	1768.4574587233
5	288	28.7	1769.8488248959
5	289	28.8	1771.2433120748
5	290	28.9	1772.6272821994
5	291	29	1774.0135607421
5	292	29.1	1775.4009959176
5	293	29.2	1776.7879649363
5	294	29.3	1778.1786112767
5	295	29.4	1779.5622870447
5	296	29.5	1780.9472292317
5	297	29.6	1782.3356302455
5	298	29.7	1783.7316322783
5	299	29.8	1785.1202267623
5	300	29.9	1786.51171296
5	301	30	1787.9069808833
5	302	30.1	1789.2945122393
5	303	30.2	1790.686318473
5	304	30.3	1792.0747878766
5	305	30.4	1793.4648952223
5	306	30.5	1794.8552968539
5	307	30.6	1796.2421121104
5	308	30.7	1797.6271249382
5	309	30.8	1799.0124936653
5	310	30.9	1800.4051494207
5	311	31	1801.7988661276
5	312	31.1	1803.1846920336
5	313	31.2	1804.5715273209
5	314	31.3	1805.9589744862
5	315	31.4	1807.3495753529
5	316	31.5	1808.7400283124
5	317	31.6	1810.1318366835
5	318	31.7	1811.5266021993
5	319	31.8	1812.9164765198
5	320	31.9	1814.3088269839
5	321	32	1815.6988619659
5	322	32.1	1817.0826861728
5	323	32.2	1818.4777160268
5	324	32.3	1819.8719056966
5	325	32.4	1821.2555543184
5	326	32.5	1822.6490551103
5	327	32.6	1824.0426903181
5	328	32.7	1825.4288385911
5	329	32.8	1826.8156987289
5	330	32.9	1828.2062632916
5	331	33	1829.5986423986
5	332	33.1	1830.9873044016
5	333	33.2	1832.37362778
5	334	33.3	1833.7686842997
5	335	33.4	1835.1648767926
5	336	33.5	1836.5608022232
5	337	33.6	1837.9468175033
5	338	33.7	1839.3401404172
5	339	33.8	1840.7243911894
5	340	33.9	1842.1146013187
5	341	34	1843.507626011
5	342	34.1	1844.8958232021
5	343	34.2	1846.2859831862
5	344	34.3	1847.6764404243
5	345	34.4	1849.0697906399
5	346	34.5	1850.4543817649
5	347	34.6	1851.8470960157
5	348	34.7	1853.2351278113
5	349	34.8	1854.6202855911
5	350	34.9	1856.0120157404
5	351	35	1857.4015193135
5	352	35.1	1858.787373418
5	353	35.2	1860.1762612034
5	354	35.3	1861.5642713439
5	355	35.4	1862.953429631
5	356	35.5	1864.3369437791
5	357	35.6	1865.720869801
5	358	35.7	1867.1129185688
5	359	35.8	1868.5068885498
5	360	35.9	1869.8984986749
5	361	36	1871.282014519
5	362	36.1	1872.6706152447
5	363	36.2	1874.0622287123
5	364	36.3	1875.4494241737
5	365	36.4	1876.8337486116
5	366	36.5	1878.2193481643
5	367	36.6	1879.6107454924
5	368	36.7	1880.9972679997
5	369	36.8	1882.3830208862
5	370	36.9	1883.7786825104
5	371	37	1885.1622600621
5	372	37.1	1886.5527931787
5	373	37.2	1887.9444790594
5	374	37.3	1889.3326112647
5	375	37.4	1890.7215529503
5	376	37.5	1892.1050522784
5	377	37.6	1893.4894941188
5	378	37.7	1894.8737532962
5	379	37.8	1896.2618061276
5	380	37.9	1897.6477460656
5	381	38	1899.0402807128
5	382	38.1	1900.4314930569
5	383	38.2	1901.8258404983
5	384	38.3	1903.2124820249
5	385	38.4	1904.5995749924
5	386	38.5	1905.9833654957
5	387	38.6	1907.3684101477
5	388	38.7	1908.7607779335
5	389	38.8	1910.150258638
5	390	38.9	1911.5411378006
5	391	39	1912.9336242853
5	392	39.1	1914.3205429167
5	393	39.2	1915.7097572815
5	394	39.3	1917.0985569786
5	395	39.4	1918.4881879697
5	396	39.5	1919.8776235478
5	397	39.6	1921.2731409455
5	398	39.7	1922.6674399748
5	399	39.8	1924.0517787142
5	400	39.9	1925.4393672002
5	401	40	1926.8331847033
5	402	40.1	1928.2196500115
5	403	40.2	1929.6067940881
5	404	40.3	1930.990279044
5	405	40.4	1932.3829429382
5	406	40.5	1933.7666053195
5	407	40.6	1935.1493992833
5	408	40.7	1936.5423914185
5	409	40.8	1937.9337634481
5	410	40.9	1939.3255253248
5	411	41	1940.7083951086
5	412	41.1	1942.0989239831
5	413	41.2	1943.4920394029
5	414	41.3	1944.8799490435
5	415	41.4	1946.2662855638
5	416	41.5	1947.652213309
5	417	41.6	1949.0463892901
5	418	41.7	1950.4301802842
5	419	41.8	1951.8197978269
5	420	41.9	1953.2109040739
5	421	42	1954.6046999367
5	422	42.1	1955.9945893753
5	423	42.2	1957.385316846
5	424	42.3	1958.7708906103
5	425	42.4	1960.1625232678
5	426	42.5	1961.549993569
5	427	42.6	1962.9415756045
5	428	42.7	1964.3270521592
5	429	42.8	1965.7218963495
5	430	42.9	1967.1145080486
5	431	43	1968.4978895616
5	432	43.1	1969.8811024986
6	3	0.2	0.25286542447004
6	4	0.3	0.49766294917859
6	5	0.4	0.73056932500431
6	6	0.5	0.94875413759194
6	7	0.6	1.1723245016953
6	8	0.7	1.3708816750736
6	9	0.8	1.5864496756212
6	10	0.9	1.7682292908497
6	11	1	1.985265837447
6	12	1.1	2.1752625241973
6	13	1.2	2.3566164375431
6	14	1.3	2.5666468154741
6	15	1.4	2.769760478177
6	16	1.5	2.9910809794938
6	17	1.6	3.1351504892655
6	18	1.7	3.3877778024212
6	19	1.8	3.5225016430937
6	20	1.9	3.7470563248065
6	21	2	3.9572089270348
6	22	2.1	4.1551124625196
6	23	2.2	4.3121882081739
6	24	2.3	4.4666062737335
6	25	2.4	4.6578499339343
6	26	2.5	4.855452901652
6	27	2.6	5.0416071083638
6	28	2.7	5.2505450852527
6	29	2.8	5.3902175229331
6	30	2.9	5.5415272829853
6	31	3	5.7922925953529
6	32	3.1	6.0084310943409
6	33	3.2	6.2571042857351
6	34	3.3	6.5144758938494
6	35	3.4	6.6662353142802
6	36	3.5	6.8250749358846
6	37	3.6	6.9719733570013
6	38	3.7	7.1047529724249
6	39	3.8	7.260862359126
6	40	3.9	7.4608700419622
6	41	4	7.6194012491274
6	42	4.1	7.8640255740387
6	43	4.2	8.0408358418298
6	44	4.3	8.2821999147147
6	45	4.4	8.4193929552947
6	46	4.5	8.6115526726315
6	47	4.6	8.8176466202861
6	48	4.7	9.0432543908022
6	49	4.8	9.2026040115565
6	50	4.9	9.403304467882
6	51	5	9.5894080545995
6	52	5.1	9.8469653808567
6	53	5.2	10.026672765746
6	54	5.3	10.207100321826
6	55	5.4	10.386898902001
6	56	5.5	10.524211652215
6	57	5.6	10.695575013495
6	58	5.7	10.908838986227
6	59	5.8	11.11202483238
6	60	5.9	11.281332776976
6	61	6	11.533503466331
6	62	6.1	11.706823793865
6	63	6.2	11.879640870284
6	64	6.3	12.093081088158
6	65	6.4	12.312075402703
6	66	6.5	12.529819263121
6	67	6.6	12.732801066379
6	68	6.7	12.868137661375
6	69	6.8	13.10098368276
6	70	6.9	13.231594739231
6	71	7	13.45866683106
6	72	7.1	13.656956155394
6	73	7.2	13.869333953757
6	74	7.3	13.802282198106
6	75	7.4	13.872036216564
6	76	7.5	13.766555763318
6	77	7.6	13.783270879982
6	78	7.7	13.809030007876
6	79	7.8	13.877507207855
6	80	7.9	13.775834849088
6	81	8	13.763021058196
6	82	8.1	13.831349302193
6	83	8.2	13.884905587435
6	84	8.3	13.762653725038
6	85	8.4	13.851501774092
6	86	8.5	13.800474045787
6	87	8.6	13.836145811512
6	88	8.7	13.861813122688
6	89	8.8	13.8163418117
6	90	8.9	13.823834035075
6	91	9	13.877787734221
6	92	9.1	13.879195376737
6	93	9.2	13.848586035857
6	94	9.3	13.872866277939
6	95	9.4	13.852377208173
6	96	9.5	13.813753318707
6	97	9.6	13.782237796318
6	98	9.7	13.80188384989
6	99	9.8	13.794424777343
6	100	9.9	13.857662091833
6	101	10	13.81303454956
6	102	10.1	13.860999388015
6	103	10.2	13.831873700791
6	104	10.3	13.799067693928
6	105	10.4	13.784206283444
6	106	10.5	13.775456583891
6	107	10.6	13.775374403258
6	108	10.7	13.795716943415
6	109	10.8	13.765709126831
6	110	10.9	13.834898844287
6	111	11	13.887504883918
6	112	11.1	13.804177440011
6	113	11.2	13.809657994502
6	114	11.3	13.872388371085
6	115	11.4	13.815904561498
6	116	11.5	13.815337716744
6	117	11.6	13.805226574333
6	118	11.7	13.773448942222
6	119	11.8	13.833337560487
6	120	11.9	13.785194781066
6	121	12	13.876970504746
6	122	12.1	13.79714863121
6	123	12.2	13.870571720393
6	124	12.3	13.823918991464
6	125	12.4	13.779758930451
6	126	12.5	13.762265255626
6	127	12.6	13.796132771331
6	128	12.7	13.887838363971
6	129	12.8	13.84320285232
6	130	12.9	13.845877503916
6	131	13	13.864000451695
6	132	13.1	13.829751373096
6	133	13.2	13.769349431954
6	134	13.3	13.788126247756
6	135	13.4	13.814960283916
6	136	13.5	13.855255870579
6	137	13.6	13.813311702893
6	138	13.7	13.81794848331
6	139	13.8	13.865794909296
6	140	13.9	13.831225825043
6	141	14	13.856933657241
6	142	14.1	13.826581098221
6	143	14.2	13.840892261157
6	144	14.3	13.778900234201
6	145	14.4	13.831019410864
6	146	14.5	13.797089398734
6	147	14.6	13.803799833537
6	148	14.7	13.860201488007
6	149	14.8	13.840149694141
6	150	14.9	13.82243754501
6	151	15	13.854439535674
6	152	15.1	13.801615670864
6	153	15.2	13.787463875217
6	154	15.3	13.849219988333
6	155	15.4	13.886663847251
6	156	15.5	13.841357902789
6	157	15.6	13.813718035107
6	158	15.7	13.822740715551
6	159	15.8	13.838512238509
6	160	15.9	13.87116979087
6	161	16	13.767743846299
6	162	16.1	13.772516433862
6	163	16.2	13.814018110596
6	164	16.3	13.858692258964
6	165	16.4	13.769161188644
6	166	16.5	13.853375086449
6	167	16.6	13.814541873022
6	168	16.7	13.861607629745
6	169	16.8	13.82600512882
6	170	16.9	13.797888740648
6	171	17	13.864735511465
6	172	17.1	13.777899728513
6	173	17.2	13.792035951403
6	174	17.3	13.836636021605
6	175	17.4	13.837852795608
6	176	17.5	13.837204336626
6	177	17.6	13.787446539381
6	178	17.7	13.78962926726
6	179	17.8	13.376334262115
6	180	17.9	13.151945721803
6	181	18	12.701945721803
6	182	18.1	12.367420815903
6	183	18.2	12.026330827419
6	184	18.3	11.787044971048
6	185	18.4	11.410733492904
6	186	18.5	11.104353725527
6	187	18.6	10.803383529359
6	188	18.7	10.386617099993
6	189	18.8	10.166141338154
6	190	18.9	9.7883053256095
6	191	19	9.4648862359575
6	192	19.1	9.1969485374406
6	193	19.2	8.8437165741208
6	194	19.3	8.534963953505
6	195	19.4	8.2778824003013
6	196	19.5	7.9437119321312
6	197	19.6	7.5948718380552
6	198	19.7	7.3281028822624
6	199	19.8	7.0396101298095
6	200	19.9	6.7284157206578
6	201	20	6.5045373958602
6	202	20.1	6.1993307477416
6	203	20.2	6.0244770192874
6	204	20.3	5.7162814251012
6	205	20.4	5.4716664571384
6	206	20.5	5.2542094710545
6	207	20.6	4.9176966054067
6	208	20.7	4.7040123698092
6	209	20.8	4.4187161769659
6	210	20.9	4.2879051641432
6	211	21	3.9708339981135
6	212	21.1	3.7712421170849
6	213	21.2	3.6209470253574
6	214	21.3	3.383759204257
6	215	21.4	3.643759204257
6	216	21.5	3.903759204257
6	217	21.6	4.163759204257
6	218	21.7	4.423759204257
6	219	21.8	4.683759204257
6	220	21.9	4.943759204257
6	221	22	5.203759204257
6	222	22.1	5.463759204257
6	223	22.2	5.723759204257
6	224	22.3	5.9441783116717
6	225	22.4	6.1779810090392
6	226	22.5	6.3403815767152
6	227	22.6	6.5416447581101
6	228	22.7	6.7473715297884
6	229	22.8	6.89097136478
6	230	22.9	7.0739814104402
6	231	23	7.298666550371
6	232	23.1	7.4929039204034
6	233	23.2	7.6715711601085
6	234	23.3	7.8143783713161
6	235	23.4	8.0079966139497
6	236	23.5	8.1519245219819
6	237	23.6	8.3764757170348
6	238	23.7	8.5975220626086
6	239	23.8	8.8105723654112
6	240	23.9	8.9527700261009
6	241	24	9.1998458950297
6	242	24.1	9.409293128716
6	243	24.2	9.5441329878714
6	244	24.3	9.7198152076226
6	245	24.4	9.8509667926218
6	246	24.5	10.057627589873
6	247	24.6	10.265052348036
6	248	24.7	10.454672844874
6	249	24.8	10.699580060142
6	250	24.9	10.920576301125
6	251	25	11.159746339736
6	252	25.1	11.301317120912
6	253	25.2	11.443311836406
6	254	25.3	11.635321005271
6	255	25.4	11.846149132294
6	256	25.5	12.017703805029
6	257	25.6	12.195405743798
6	258	25.7	12.378435257129
6	259	25.8	12.593794332776
6	260	25.9	12.725792221223
6	261	26	12.858882885278
6	262	26.1	13.108215378342
6	263	26.2	13.25497464425
6	264	26.3	13.438314331135
6	265	26.4	13.582380205903
6	266	26.5	13.757001151995
6	267	26.6	13.950282787126
6	268	26.7	13.938819282828
6	269	26.8	13.98700539341
6	270	26.9	13.948024421553
6	271	27	13.95041837032
6	272	27.1	13.893087124415
6	273	27.2	13.947345370629
6	274	27.3	13.985728020088
6	275	27.4	13.911324535992
6	276	27.5	13.89647847628
6	277	27.6	13.906331422408
6	278	27.7	13.998870310558
6	279	27.8	13.88868409619
6	280	27.9	13.980062045474
6	281	28	13.898407651924
6	282	28.1	13.886756671155
6	283	28.2	13.940733203106
6	284	28.3	13.973932918678
6	285	28.4	13.969699881927
6	286	28.5	13.977887046735
6	287	28.6	13.934007379091
6	288	28.7	13.96526308571
6	289	28.8	13.872788818828
6	290	28.9	13.899291148277
6	291	29	13.910887940275
6	292	29.1	13.906214085906
6	293	29.2	13.943084147121
6	294	29.3	13.87319486174
6	295	29.4	13.885892397757
6	296	29.5	13.920571753965
6	297	29.6	13.996782099754
6	298	29.7	13.922511551462
6	299	29.8	13.951504829242
6	300	29.9	13.989421676134
6	301	30	13.911852276418
6	302	30.1	13.954713622548
6	303	30.2	13.921257445926
6	304	30.3	13.937680007757
6	305	30.4	13.940630612771
6	306	30.5	13.904672412581
6	307	30.6	13.886600673599
6	308	30.7	13.890169034177
6	309	30.8	13.963231209253
6	310	30.9	13.973868663169
6	311	31	13.894752860635
6	312	31.1	13.904873255545
6	313	31.2	13.911008144245
6	314	31.3	13.942628208799
6	315	31.4	13.941145248613
6	316	31.5	13.954735047498
6	317	31.6	13.984384377075
6	318	31.7	13.935343611625
6	319	31.8	13.960170255525
6	320	31.9	13.936954465271
6	321	32	13.874683156386
6	322	32.1	13.987034717032
6	323	32.2	13.978610747021
6	324	32.3	13.872922683253
6	325	32.4	13.971703830629
6	326	32.5	13.973051522984
6	327	32.6	13.897985026091
6	328	32.7	13.905122406574
6	329	32.8	13.942264216742
6	330	32.9	13.960457437609
6	331	33	13.923188518677
6	332	33.1	13.899740689823
6	333	33.2	13.987302071862
6	334	33.3	13.998691719738
6	335	33.4	13.996014063652
6	336	33.5	13.896651588201
6	337	33.6	13.969920368509
6	338	33.7	13.878960043273
6	339	33.8	13.938710548456
6	340	33.9	13.966930288717
6	341	34	13.918528157957
6	342	34.1	13.938207778512
6	343	34.2	13.941188134653
6	344	34.3	13.970194107643
6	345	34.4	13.882372528426
6	346	34.5	13.963817710823
6	347	34.6	13.916869839572
6	348	34.7	13.888054008905
6	349	34.8	13.953950773259
6	350	34.9	13.931626377061
6	351	35	13.895035590874
6	352	35.1	13.925452287872
6	353	35.2	13.916652718759
6	354	35.3	13.928164427273
6	355	35.4	13.871574408028
6	356	35.5	13.875703989295
6	357	35.6	13.957145349632
6	358	35.7	13.976408078049
6	359	35.8	13.952747371076
6	360	35.9	13.871591409433
6	361	36	13.922574126583
6	362	36.1	13.952780885543
6	363	36.2	13.908484476071
6	364	36.3	13.879698646546
6	365	36.4	13.892483366311
6	366	36.5	13.950613792771
6	367	36.6	13.901737221114
6	368	36.7	13.894020744881
6	369	36.8	13.993369049225
6	370	36.9	13.872210112021
6	371	37	13.9419489246
6	372	37.1	13.953506926149
6	373	37.2	13.917876591058
6	374	37.3	13.925992700413
6	375	37.4	13.87142582292
6	376	37.5	13.880875756899
6	377	37.6	13.879044310157
6	378	37.7	13.917080761562
6	379	37.8	13.89589618199
6	380	37.9	13.962016942136
6	381	38	13.948759087052
6	382	38.1	13.980192617711
6	383	38.2	13.902930544815
6	384	38.3	13.907456841341
6	385	38.4	13.87434523605
6	386	38.5	13.886919750662
6	387	38.6	13.960343929068
6	388	38.7	13.931397085281
6	389	38.8	13.945418505643
6	390	38.9	13.961534043243
6	391	39	13.905708889831
6	392	39.1	13.928726682977
6	393	39.2	13.924569076735
6	394	39.3	13.932903918612
6	395	39.4	13.930944634497
6	396	39.5	13.991922995124
6	397	39.6	13.979707224343
6	398	39.7	13.879842029223
6	399	39.8	13.912425074885
6	400	39.9	13.974879281602
6	401	40	13.901163716011
6	402	40.1	13.914550868536
6	403	40.2	13.879085599985
6	404	40.3	13.971168463307
6	405	40.4	13.880865528348
6	406	40.5	13.872153582566
6	407	40.6	13.974461371491
6	408	40.7	13.958208518946
6	409	40.8	13.962119453682
6	410	40.9	13.872914208006
6	411	41	13.949750000604
6	412	41.1	13.975698163407
6	413	41.2	13.923473920217
6	414	41.3	13.907692420084
6	415	41.4	13.903591595823
6	416	41.5	13.986337689499
6	417	41.6	13.882155764352
6	418	41.7	13.940607550172
6	419	41.8	13.955542184357
6	420	41.9	13.982524352272
6	421	42	13.943335208059
6	422	42.1	13.95174231275
6	423	42.2	13.900040473195
6	424	42.3	13.960823125762
6	425	42.4	13.919066482189
6	426	42.5	13.960315288443
6	427	42.6	13.89906526349
6	428	42.7	13.993041148894
6	429	42.8	13.970644850102
6	430	42.9	13.878047856959
6	431	43	13.87635670668
6	432	43.1	13.989860934315
7	4	0.3	2.4479752470855
7	5	0.4	2.3290637582572
7	6	0.5	2.1818481258762
7	7	0.6	2.2357036410334
7	8	0.7	1.9855717337837
7	9	0.8	2.1556800054752
7	10	0.9	1.8177961522857
7	11	1	2.1703654659723
7	12	1.1	1.8999668675033
7	13	1.2	1.8135391334582
7	14	1.3	2.1003037793096
7	15	1.4	2.0311366270296
7	16	1.5	2.213205013168
7	17	1.6	1.4406950977165
7	18	1.7	2.5262731315568
7	19	1.8	1.3472384067252
7	20	1.9	2.2455468171276
7	21	2	2.1015260222834
7	22	2.1	1.979035354848
7	23	2.2	1.5707574565429
7	24	2.3	1.5441806555958
7	25	2.4	1.9124366020085
7	26	2.5	1.9760296771768
7	27	2.6	1.861542067118
7	28	2.7	2.0893797688885
7	29	2.8	1.3967243768042
7	30	2.9	1.5130976005224
7	31	3	2.5076531236758
7	32	3.1	2.16138498988
7	33	3.2	2.4867319139419
7	34	3.3	2.5737160811434
7	35	3.4	1.5175942043075
7	36	3.5	1.5883962160442
7	37	3.6	1.4689842111664
7	38	3.7	1.3277961542364
7	39	3.8	1.5610938670114
7	40	3.9	2.0000768283615
7	41	4	1.5853120716521
7	42	4.1	2.4462432491127
7	43	4.2	1.7681026779115
7	44	4.3	2.413640728849
7	45	4.4	1.3719304058002
7	46	4.5	1.9215971733676
7	47	4.6	2.0609394765459
7	48	4.7	2.2560777051607
7	49	4.8	1.5934962075436
7	50	4.9	2.0070045632543
7	51	5	1.8610358671751
7	52	5.1	2.5755732625723
7	53	5.2	1.7970738488948
7	54	5.3	1.8042755607981
7	55	5.4	1.7979858017527
7	56	5.5	1.3731275021331
7	57	5.6	1.7136336127995
7	58	5.7	2.1326397273224
7	59	5.8	2.0318584615365
7	60	5.9	1.6930794459535
7	61	6	2.5217068935512
7	62	6.1	1.7332032753387
7	63	6.2	1.7281707641901
7	64	6.3	2.1344021787401
7	65	6.4	2.1899431454483
7	66	6.5	2.1774386041798
7	67	6.6	2.0298180325888
7	68	6.7	1.3533659499604
7	69	6.8	2.3284602138447
7	70	6.9	1.3061105647124
7	71	7	2.2707209182903
7	72	7.1	1.9828932433389
7	73	7.2	2.1237779836318
7	74	7.3	-0.67051755650901
7	75	7.4	0.69754018457607
7	76	7.5	-1.0548045324627
7	77	7.6	0.16715116663836
7	78	7.7	0.25759127894418
7	79	7.8	0.68477199978661
7	80	7.9	-1.0167235876667
7	81	8	-0.12813790892251
7	82	8.1	0.68328243996948
7	83	8.2	0.53556285242085
7	84	8.3	-1.2225186239695
7	85	8.4	0.88848049053922
7	86	8.5	-0.51027728305197
7	87	8.6	0.35671765725128
7	88	8.7	0.25667311176656
7	89	8.8	-0.45471310988068
7	90	8.9	0.074922233750119
7	91	9	0.53953699145932
7	92	9.1	0.014076425158418
7	93	9.2	-0.306093408796
7	94	9.3	0.2428024208173
7	95	9.4	-0.20489069765899
7	96	9.5	-0.38623889465816
7	97	9.6	-0.31515522389672
7	98	9.7	0.1964605357265
7	99	9.8	-0.074590725474994
7	100	9.9	0.63237314489671
7	101	10	-0.4462754227221
7	102	10.1	0.47964838454499
7	103	10.2	-0.29125687223859
7	104	10.3	-0.32806006863249
7	105	10.4	-0.14861410483718
7	106	10.5	-0.087496995530092
7	107	10.6	-0.00082180632743345
7	108	10.7	0.20342540156562
7	109	10.8	-0.30007816583383
7	110	10.9	0.691897174553
7	111	11	0.52606039631646
7	112	11.1	-0.83327443907038
7	113	11.2	0.054805544903509
7	114	11.3	0.62730376583058
7	115	11.4	-0.5648380958708
7	116	11.5	-0.005668447539211
7	117	11.6	-0.10111142410896
7	118	11.7	-0.31777632110753
7	119	11.8	0.59888618264813
7	120	11.9	-0.48142779420594
7	121	12	0.91775723679456
7	122	12.1	-0.79821873535401
7	123	12.2	0.73423089182469
7	124	12.3	-0.46652728929185
7	125	12.4	-0.44160061012953
7	126	12.5	-0.17493674824946
7	127	12.6	0.3386751570506
7	128	12.7	0.9170559264021
7	129	12.8	-0.44635511650704
7	130	12.9	0.026746515952993
7	131	13	0.18122947779483
7	132	13.1	-0.34249078598805
7	133	13.2	-0.60401941142045
7	134	13.3	0.18776815801393
7	135	13.4	0.26834036160725
7	136	13.5	0.40295586662834
7	137	13.6	-0.41944167686161
7	138	13.7	0.046367804170586
7	139	13.8	0.47846425985917
7	140	13.9	-0.34569084253162
7	141	14	0.25707832197659
7	142	14.1	-0.30352559019811
7	143	14.2	0.14311162936501
7	144	14.3	-0.61992026956286
7	145	14.4	0.52119176662526
7	146	14.5	-0.33930012129712
7	147	14.6	0.067104348028071
7	148	14.7	0.56401654470246
7	149	14.8	-0.20051793865859
7	150	14.9	-0.17712149131112
7	151	15	0.32001990664286
7	152	15.1	-0.52823864810636
7	153	15.2	-0.14151795646175
7	154	15.3	0.61756113115697
7	155	15.4	0.3744385891827
7	156	15.5	-0.45305944462308
7	157	15.6	-0.27639867682009
7	158	15.7	0.090226804441773
7	159	15.8	0.15771522957365
7	160	15.9	0.32657552361488
7	161	16	-1.0342594457092
7	162	16.1	0.047725875629112
7	163	16.2	0.41501676733605
7	164	16.3	0.44674148368649
7	165	16.4	-0.89531070319936
7	166	16.5	0.8421389780473
7	167	16.6	-0.38833213427569
7	168	16.7	0.4706575672375
7	169	16.8	-0.35602500925307
7	170	16.9	-0.28116388171911
7	171	17	0.66846770816483
7	172	17.1	-0.86835782951676
7	173	17.2	0.14136222889647
7	174	17.3	0.44600070202725
7	175	17.4	0.012167740031135
7	176	17.5	-0.0064845898188537
7	177	17.6	-0.49757797245402
7	178	17.7	0.021827278793172
7	179	17.8	-4.1329500514519
7	180	17.9	-2.2438854031216
7	181	18	-4.5
7	182	18.1	-3.3452490589971
7	183	18.2	-3.4108998848436
7	184	18.3	-2.3928585637051
7	185	18.4	-3.7631147814456
7	186	18.5	-3.0637976737645
7	187	18.6	-3.0097019616827
7	188	18.7	-4.1676642936647
7	189	18.8	-2.2047576183911
7	190	18.9	-3.7783601254405
7	191	19	-3.2341908965204
7	192	19.1	-2.6793769851692
7	193	19.2	-3.5323196331978
7	194	19.3	-3.0875262061577
7	195	19.4	-2.5708155320375
7	196	19.5	-3.3417046817002
7	197	19.6	-3.4884009407608
7	198	19.7	-2.6676895579278
7	199	19.8	-2.8849275245285
7	200	19.9	-3.1119440915177
7	201	20	-2.2387832479755
7	202	20.1	-3.0520664811861
7	203	20.2	-1.7485372845417
7	204	20.3	-3.0819559418628
7	205	20.4	-2.446149679627
7	206	20.5	-2.1745698608392
7	207	20.6	-3.3651286564781
7	208	20.7	-2.1368423559749
7	209	20.8	-2.8529619284335
7	210	20.9	-1.3081101282267
7	211	21	-3.1707116602975
7	212	21.1	-1.9959188102861
7	213	21.2	-1.5029509172745
7	214	21.3	-2.3718782110044
7	215	21.4	2.6
7	216	21.5	2.6
7	217	21.6	2.6
7	218	21.7	2.6
7	219	21.8	2.6
7	220	21.9	2.6
7	221	22	2.6
7	222	22.1	2.6
7	223	22.2	2.6
7	224	22.3	2.2041910741478
7	225	22.4	2.338026973675
7	226	22.5	1.6240056767594
7	227	22.6	2.012631813949
7	228	22.7	2.0572677167831
7	229	22.8	1.4359983499162
7	230	22.9	1.8301004566019
7	231	23	2.2468513993081
7	232	23.1	1.9423737003235
7	233	23.2	1.786672397051
7	234	23.3	1.4280721120769
7	235	23.4	1.9361824263353
7	236	23.5	1.439279080322
7	237	23.6	2.2455119505292
7	238	23.7	2.2104634557385
7	239	23.8	2.1305030280259
7	240	23.9	1.4219766068971
7	241	24	2.4707586892881
7	242	24.1	2.0944723368622
7	243	24.2	1.3483985915547
7	244	24.3	1.7568221975118
7	245	24.4	1.3115158499917
7	246	24.5	2.0666079725139
7	247	24.6	2.0742475816282
7	248	24.7	1.8962049683789
7	249	24.8	2.4490721526788
7	250	24.9	2.2099624098279
7	251	25	2.3917003861163
7	252	25.1	1.4157078117598
7	253	25.2	1.4199471549364
7	254	25.3	1.9200916886562
7	255	25.4	2.1082812702283
7	256	25.5	1.7155467273435
7	257	25.6	1.7770193876931
7	258	25.7	1.8302951333113
7	259	25.8	2.1535907564685
7	260	25.9	1.3199788844678
7	261	26	1.330906640552
7	262	26.1	2.4933249306399
7	263	26.2	1.4675926590804
7	264	26.3	1.8333968688501
7	265	26.4	1.4406587476842
7	266	26.5	1.746209460916
7	267	26.6	1.9328163513156
7	268	26.7	-0.11463504298591
7	269	26.8	0.48186110581737
7	270	26.9	-0.38980971856509
7	271	27	0.023939487664038
7	272	27.1	-0.57331245904789
7	273	27.2	0.54258246214596
7	274	27.3	0.38382649458944
7	275	27.4	-0.7440348409582
7	276	27.5	-0.1484605971258
7	277	27.6	0.098529461282304
7	278	27.7	0.92538888149429
7	279	27.8	-1.1018621436786
7	280	27.9	0.91377949283924
7	281	28	-0.81654393549544
7	282	28.1	-0.1165098076919
7	283	28.2	0.53976531950756
7	284	28.3	0.3319971557241
7	285	28.4	-0.042330367513941
7	286	28.5	0.081871648086249
7	287	28.6	-0.43879667643925
7	288	28.7	0.31255706618541
7	289	28.8	-0.92474266882055
7	290	28.9	0.26502329448704
7	291	29	0.11596791998018
7	292	29.1	-0.046738543687397
7	293	29.2	0.36870061215014
7	294	29.3	-0.69889285380487
7	295	29.4	0.12697536016349
7	296	29.5	0.34679356208072
7	297	29.6	0.76210345788859
7	298	29.7	-0.7427054829197
7	299	29.8	0.28993277780247
7	300	29.9	0.3791684689233
7	301	30	-0.77569399715866
7	302	30.1	0.42861346129794
7	303	30.2	-0.3345617662184
7	304	30.3	0.16422561830842
7	305	30.4	0.029506050143393
7	306	30.5	-0.35958200190217
7	307	30.6	-0.18071738982107
7	308	30.7	0.035683605773364
7	309	30.8	0.73062175076922
7	310	30.9	0.10637453915551
7	311	31	-0.79115802533925
7	312	31.1	0.10120394909753
7	313	31.2	0.061348886997443
7	314	31.3	0.31620064554737
7	315	31.4	-0.014829601859674
7	316	31.5	0.13589798884931
7	317	31.6	0.29649329576642
7	318	31.7	-0.49040765450338
7	319	31.8	0.24826643900015
7	320	31.9	-0.23215790253598
7	321	32	-0.62271308884956
7	322	32.1	1.123515606462
7	323	32.2	-0.084239700110622
7	324	32.3	-1.0568806376774
7	325	32.4	0.98781147375702
7	326	32.5	0.013476923550488
7	327	32.6	-0.75066496892832
7	328	32.7	0.071373804821633
7	329	32.8	0.37141810168977
7	330	32.9	0.1819322086638
7	331	33	-0.3726891893195
7	332	33.1	-0.23447828853969
7	333	33.2	0.87561382038984
7	334	33.3	0.11389647875912
7	335	33.4	-0.026776560861617
7	336	33.5	-0.99362475450615
7	337	33.6	0.73268780307844
7	338	33.7	-0.90960325235502
7	339	33.8	0.59750505182892
7	340	33.9	0.28219740260393
7	341	34	-0.48402130759788
7	342	34.1	0.19679620554671
7	343	34.2	0.029803561419257
7	344	34.3	0.29005972989834
7	345	34.4	-0.87821579216978
7	346	34.5	0.81445182396564
7	347	34.6	-0.46947871251032
7	348	34.7	-0.28815830666572
7	349	34.8	0.65896764353383
7	350	34.9	-0.22324396197218
7	351	35	-0.36590786187444
7	352	35.1	0.30416696998291
7	353	35.2	-0.087995691131795
7	354	35.3	0.11511708514298
7	355	35.4	-0.56590019245631
7	356	35.5	0.041295812674793
7	357	35.6	0.81441360337195
7	358	35.7	0.1926272841636
7	359	35.8	-0.23660706973168
7	360	35.9	-0.81155961642509
7	361	36	0.50982717149891
7	362	36.1	0.30206758959686
7	363	36.2	-0.44296409471427
7	364	36.3	-0.28785829525441
7	365	36.4	0.12784719765186
7	366	36.5	0.58130426460412
7	367	36.6	-0.48876571657603
7	368	36.7	-0.077164762327442
7	369	36.8	0.99348304343875
7	370	36.9	-1.2115893720416
7	371	37	0.69738812579308
7	372	37.1	0.11558001548982
7	373	37.2	-0.35630335090682
7	374	37.3	0.081161093548872
7	375	37.4	-0.54566877493635
7	376	37.5	0.094499339791945
7	377	37.6	-0.018314467417078
7	378	37.7	0.38036451404913
7	379	37.8	-0.21184579571708
7	380	37.9	0.66120760145131
7	381	38	-0.13257855083793
7	382	38.1	0.31433530659415
7	383	38.2	-0.77262072896119
7	384	38.3	0.045262965257269
7	385	38.4	-0.33111605290323
7	386	38.5	0.12574514611623
7	387	38.6	0.73424178406132
7	388	38.7	-0.28946843787562
7	389	38.8	0.14021420362404
7	390	38.9	0.16115537600127
7	391	39	-0.55825153412298
7	392	39.1	0.23017793146428
7	393	39.2	-0.041576062422237
7	394	39.3	0.083348418772218
7	395	39.4	-0.01959284115582
7	396	39.5	0.60978360627777
7	397	39.6	-0.1221577078104
7	398	39.7	-0.99865195120218
7	399	39.8	0.32583045661449
7	400	39.9	0.62454206717666
7	401	40	-0.73715565591119
7	402	40.1	0.13387152524665
7	403	40.2	-0.35465268550906
7	404	40.3	0.92082863321993
7	405	40.4	-0.90302934958599
7	406	40.5	-0.087119457824159
7	407	40.6	1.0230778892524
7	408	40.7	-0.16252852545584
7	409	40.8	0.039109347364867
7	410	40.9	-0.89205245675986
7	411	41	0.7683579259785
7	412	41.1	0.2594816280296
7	413	41.2	-0.52224243190139
7	414	41.3	-0.1578150013229
7	415	41.4	-0.04100824261549
7	416	41.5	0.8274609367596
7	417	41.6	-1.0418192514684
7	418	41.7	0.5845178582007
7	419	41.8	0.14934634184465
7	420	41.9	0.26982167914975
7	421	42	-0.39189144212287
7	422	42.1	0.084071046905603
7	423	42.2	-0.51701839554591
7	424	42.3	0.60782652567141
7	425	42.4	-0.41756643573754
7	426	42.5	0.41248806254007
7	427	42.6	-0.61250024952459
7	428	42.7	0.93975885403342
7	429	42.8	-0.22396298791282
7	430	42.9	-0.92596993143671
7	431	43	-0.016911502787842
7	432	43.1	1.1350422763499
8	4	0.3	1.4276208928798
8	5	0.4	1.5553504369406
8	6	0.5	1.6547258140606
8	7	0.6	1.7983555805977
8	8	0.7	1.8323674505787
8	9	0.8	2.0110897446338
8	10	0.9	1.970451684244
8	11	1	2.244901373431
8	12	1.1	2.2119208452933
8	13	1.2	2.2548819012347
8	14	1.3	2.5345448660167
8	15	1.4	2.6013847819414
8	16	1.5	2.852151772081
8	17	1.6	2.3526342216865
8	18	1.7	3.339605186172
8	19	1.8	2.4276646371033
8	20	1.9	3.3234379637286
8	21	2	3.3108190720898
8	22	2.1	3.2988402737822
8	23	2.2	2.9578171889378
8	24	2.3	2.9959376211745
8	25	2.4	3.4908200907348
8	26	2.5	3.6670806850063
8	27	2.6	3.6268696198063
8	28	2.7	4.0205201967415
8	29	2.8	3.1988957479633
8	30	2.9	3.4137976506977
8	31	3	4.907912272511
8	32	3.1	4.5496391886597
8	33	3.2	5.1843707050129
8	34	3.3	5.490502883119
8	35	3.4	3.8970556575359
8	36	3.5	4.0812734992789
8	37	3.6	3.9458891055838
8	38	3.7	3.7593760917064
8	39	3.8	4.2273339749307
8	40	3.9	5.1045553963918
8	41	4	4.4294934204996
8	42	4.1	6.1704815888201
8	43	4.2	4.9722185416067
8	44	4.3	6.3796667209292
8	45	4.4	4.3550328563445
8	46	4.5	5.5724689565354
8	47	4.6	5.9783016536976
8	48	4.7	6.531517038645
8	49	4.8	5.1600288586713
8	50	4.9	6.1886912441601
8	51	5	5.9549957283831
8	52	5.1	7.7853608744789
8	53	5.2	6.0293065596097
8	54	5.3	6.1389862136434
8	55	5.4	6.215380184048
8	56	5.5	5.2080809029875
8	57	5.6	6.1561018361202
8	58	5.7	7.3629412347938
8	59	5.8	7.2141082079045
8	60	5.9	6.3899916329279
8	61	6	8.8173762262081
8	62	6.1	6.712915009577
8	63	6.2	6.7856909201694
8	64	6.3	8.0773156423548
8	65	6.4	8.3743676988308
8	66	6.5	8.4713421478856
8	67	6.6	8.1436375074094
8	68	6.7	6.1246890190291
8	69	6.8	9.3014481119437
8	70	6.9	6.1272339967354
8	71	7	9.3496226877566
8	72	7.1	8.5304672898817
8	73	7.2	9.1242607840614
8	74	7.3	0.973
8	75	7.4	4.3577761273913
8	76	7.5	0.973
8	77	7.6	2.5720389208699
8	78	7.7	2.8766605061585
8	79	7.8	4.3165487169568
8	80	7.9	0.973
8	81	8	1.5897409358382
8	82	8.1	4.2992840120413
8	83	8.2	3.8192287130312
8	84	8.3	0.973
8	85	8.4	4.9896392768023
8	86	8.5	0.973
8	87	8.6	3.2116257252267
8	88	8.7	2.8822162993739
8	89	8.8	0.973
8	90	8.9	2.2705069044256
8	91	9	3.8308782287708
8	92	9.1	2.0735985700595
8	93	9.2	0.973
8	94	9.3	2.8376475775941
8	95	9.4	1.3397800903168
8	96	9.5	0.973
8	97	9.6	0.973
8	98	9.7	2.6721583083952
8	99	9.8	1.7699536569376
8	100	9.9	4.1362624045135
8	101	10	0.973
8	102	10.1	3.6269324671744
8	103	10.2	0.973
8	104	10.3	0.973
8	105	10.4	1.523200731307
8	106	10.5	1.72553335973
8	107	10.6	2.0132767534198
8	108	10.7	2.6943999741245
8	109	10.8	0.973
8	110	10.9	4.3289513261833
8	111	11	3.7880248379296
8	112	11.1	0.973
8	113	11.2	2.2018661804261
8	114	11.3	4.1230534982783
8	115	11.4	0.973
8	116	11.5	2.0011675562914
8	117	11.6	1.6826146952809
8	118	11.7	0.973
8	119	11.8	4.0184496209541
8	120	11.9	0.973
8	121	12	5.0955897623647
8	122	12.1	0.973
8	123	12.2	4.480031175744
8	124	12.3	0.973
8	125	12.4	0.973
8	126	12.5	1.4344701542838
8	127	12.6	3.1441499371435
8	128	12.7	5.0967509647228
8	129	12.8	0.973
8	130	12.9	2.1123821406232
8	131	13	2.6304995292341
8	132	13.1	0.973
8	133	13.2	0.973
8	134	13.3	2.6412334528155
8	135	13.4	2.913416317278
8	136	13.5	3.3696005220121
8	137	13.6	0.973
8	138	13.7	2.1747153095917
8	139	13.8	3.6240166329672
8	140	13.9	0.973
8	141	14	2.8827725382202
8	142	14.1	0.973
8	143	14.2	2.4999986269216
8	144	14.3	0.973
8	145	14.4	3.7589033856847
8	146	14.5	0.973
8	147	14.6	2.2421113464975
8	148	14.7	3.908574948315
8	149	14.8	1.3537295695558
8	150	14.9	1.4307304369737
8	151	15	3.0925219086528
8	152	15.1	0.973
8	153	15.2	1.5469917110599
8	154	15.3	4.0846820548599
8	155	15.4	3.2804021118007
8	156	15.5	0.973
8	157	15.6	1.0997163287534
8	158	15.7	2.3213603415067
8	159	15.8	2.548379587621
8	160	15.9	3.1174254492747
8	161	16	0.973
8	162	16.1	2.1741275055778
8	163	16.2	3.4015720226157
8	164	16.3	3.5165244207166
8	165	16.4	0.973
8	166	16.5	4.8355116769921
8	167	16.6	0.973
8	168	16.7	3.5970293553718
8	169	16.8	0.973
8	170	16.9	1.0833253121345
8	171	17	4.2586646869057
8	172	17.1	0.973
8	173	17.2	2.4875572582559
8	174	17.3	3.509443380128
8	175	17.4	2.0628981130628
8	176	17.5	2.0006293591663
8	177	17.6	0.973
8	178	17.7	2.0899817393626
8	179	17.8	0.973
8	180	17.9	0.973
8	181	18	0.973
8	182	18.1	0.973
8	183	18.2	0.973
8	184	18.3	0.973
8	185	18.4	0.973
8	186	18.5	0.973
8	187	18.6	0.973
8	188	18.7	0.973
8	189	18.8	0.973
8	190	18.9	0.973
8	191	19	0.973
8	192	19.1	0.973
8	193	19.2	0.973
8	194	19.3	0.973
8	195	19.4	0.973
8	196	19.5	0.973
8	197	19.6	0.973
8	198	19.7	0.973
8	199	19.8	0.973
8	200	19.9	0.973
8	201	20	0.973
8	202	20.1	0.973
8	203	20.2	0.973
8	204	20.3	0.973
8	205	20.4	0.973
8	206	20.5	0.973
8	207	20.6	0.973
8	208	20.7	0.973
8	209	20.8	0.973
8	210	20.9	0.973
8	211	21	0.973
8	212	21.1	0.973
8	213	21.2	0.973
8	214	21.3	0.973
8	215	21.4	3.5734235781487
8	216	21.5	3.7499085454416
8	217	21.6	3.9265397821952
8	218	21.7	4.1033270303167
8	219	21.8	4.2802800317131
8	220	21.9	4.4574085282918
8	221	22	4.6347222619599
8	222	22.1	4.8122309746244
8	223	22.2	4.9899444081927
8	224	22.3	4.573756488182
8	225	22.4	4.9108815227621
8	226	22.5	3.9209386788341
8	227	22.6	4.6244165310071
8	228	22.7	4.8092279203372
8	229	22.8	3.8574458455359
8	230	22.9	4.6039594021936
8	231	23	5.4501685551283
8	232	23.1	5.0178382123036
8	233	23.2	4.8250720445305
8	234	23.3	4.2204855695826
8	235	23.4	5.2804368166339
8	236	23.5	4.3809205261474
8	237	23.6	6.101459590154
8	238	23.7	6.1635383368453
8	239	23.8	6.1220020179961
8	240	23.9	4.6762528821078
8	241	24	7.1038056801764
8	242	24.1	6.3903690178405
8	243	24.2	4.7522214996133
8	244	24.3	5.7790262426185
8	245	24.4	4.7871679903763
8	246	24.5	6.6983919080123
8	247	24.6	6.8365416552198
8	248	24.7	6.4975273733326
8	249	24.8	8.0544770190141
8	250	24.9	7.5734299285492
8	251	25	8.2092129637038
8	252	25.1	5.6443618283109
8	253	25.2	5.7164390595478
8	254	25.3	7.2009557386653
8	255	25.4	7.8540059458799
8	256	25.5	6.8187530130916
8	257	25.6	7.0886878002231
8	258	25.7	7.3424919194329
8	259	25.8	8.4384170836641
8	260	25.9	5.9625390449441
8	261	26	6.0511984237083
8	262	26.1	9.8270200902335
8	263	26.2	6.6527038870823
8	264	26.3	7.9201505391993
8	265	26.4	6.7124725630825
8	266	26.5	7.8036016995407
8	267	26.6	8.531921945993
8	268	26.7	1.6474991360032
8	269	26.8	3.6618059171734
8	270	26.9	0.973
8	271	27	2.1142579163805
8	272	27.1	0.973
8	273	27.2	3.8572461786807
8	274	27.3	3.331095123296
8	275	27.4	0.973
8	276	27.5	1.5310699250937
8	277	27.6	2.3594892629876
8	278	27.7	5.1607419363666
8	279	27.8	0.973
8	280	27.9	5.1155056314096
8	281	28	0.973
8	282	28.1	1.6373588237929
8	283	28.2	3.8462414845023
8	284	28.3	3.1542496153309
8	285	28.4	1.8932301133553
8	286	28.5	2.312380293867
8	287	28.6	0.973
8	288	28.7	3.0872406886738
8	289	28.8	0.973
8	290	28.9	2.9163145857928
8	291	29	2.418524401545
8	292	29.1	1.8726236854844
8	293	29.2	3.2719614799507
8	294	29.3	0.973
8	295	29.4	2.452118342814
8	296	29.5	3.1941690982846
8	297	29.6	4.6092637080109
8	298	29.7	0.973
8	299	29.8	3.008727805743
8	300	29.9	3.3161109519042
8	301	30	0.973
8	302	30.1	3.4756750034265
8	303	30.2	0.973
8	304	30.3	2.5841019428422
8	305	30.4	2.1319036909623
8	306	30.5	0.973
8	307	30.6	1.4224657038976
8	308	30.7	2.1470821642255
8	309	30.8	4.4937254694114
8	310	30.9	2.3944080816575
8	311	31	0.973
8	312	31.1	2.3682685624403
8	313	31.2	2.235426805361
8	314	31.3	3.0954654168011
8	315	31.4	1.983000262188
8	316	31.5	2.4912505925164
8	317	31.6	3.0364996406042
8	318	31.7	0.973
8	319	31.8	2.8700367694307
8	320	31.9	1.2526238099453
8	321	32	0.973
8	322	32.1	5.8247496771478
8	323	32.2	1.7528652566279
8	324	32.3	0.973
8	325	32.4	5.3620883843104
8	326	32.5	2.081470272681
8	327	32.6	0.973
8	328	32.7	2.2683351832241
8	329	32.8	3.2809358941288
8	330	32.9	2.6469037728766
8	331	33	0.973
8	332	33.1	1.2431399162006
8	333	33.2	4.9891874640669
8	334	33.3	2.4229642860123
8	335	33.4	1.9481205210849
8	336	33.5	0.973
8	337	33.6	4.5025434779581
8	338	33.7	0.973
8	339	33.8	4.0397328709321
8	340	33.9	2.9853452765907
8	341	34	0.973
8	342	34.1	2.6935848276814
8	343	34.2	2.1329641653605
8	344	34.3	3.0123722009618
8	345	34.4	0.973
8	346	34.5	4.7760004000647
8	347	34.6	0.973
8	348	34.7	0.973
8	349	34.8	4.2501768088242
8	350	34.9	1.2823069360879
8	351	35	0.973
8	352	35.1	3.0520183413705
8	353	35.2	1.7351966312039
8	354	35.3	2.4179123607322
8	355	35.4	0.973
8	356	35.5	2.1642548065508
8	357	35.6	4.7738799021828
8	358	35.7	2.6852594910523
8	359	35.8	1.2383923285307
8	360	35.9	0.973
8	361	36	3.7415738472351
8	362	36.1	3.0497521295372
8	363	36.2	0.973
8	364	36.3	0.973
8	365	36.4	2.4559093391905
8	366	36.5	3.9881939707288
8	367	36.6	0.973
8	368	36.7	1.7696389682762
8	369	36.8	5.3885918989672
8	370	36.9	0.973
8	371	37	4.3761379170522
8	372	37.1	2.4227596690247
8	373	37.2	0.973
8	374	37.3	2.3036687213196
8	375	37.4	0.973
8	376	37.5	2.3428131079196
8	377	37.6	1.9652400388387
8	378	37.7	3.3061190169967
8	379	37.8	1.3187601194263
8	380	37.9	4.2598195509569
8	381	38	1.5879198058744
8	382	38.1	3.0958845672154
8	383	38.2	0.973
8	384	38.3	2.1810974377466
8	385	38.4	0.973
8	386	38.5	2.4481370270761
8	387	38.6	4.5051012118678
8	388	38.7	0.973
8	389	38.8	2.5044997046937
8	390	38.9	2.577152641304
8	391	39	0.973
8	392	39.1	2.8042242227371
8	393	39.2	1.8916117500156
8	394	39.3	2.3118536014239
8	395	39.4	1.9660037088082
8	396	39.5	4.0942424403288
8	397	39.6	1.6252053546571
8	398	39.7	0.973
8	399	39.8	3.1223708909064
8	400	39.9	4.1396976422222
8	401	40	0.973
8	402	40.1	2.4790380373222
8	403	40.2	0.973
8	404	40.3	5.1363714649356
8	405	40.4	0.973
8	406	40.5	1.7345422826879
8	407	40.6	5.4817989139804
8	408	40.7	1.4878340342719
8	409	40.8	2.1665661269529
8	410	40.9	0.973
8	411	41	4.6168384891058
8	412	41.1	2.9103288659047
8	413	41.2	0.973
8	414	41.3	1.5004566387414
8	415	41.4	1.8915870900209
8	416	41.5	4.8265758696071
8	417	41.6	0.973
8	418	41.7	3.9965668065405
8	419	41.8	2.5365901787024
8	420	41.9	2.9462985060849
8	421	42	0.973
8	422	42.1	2.316585379653
8	423	42.2	0.973
8	424	42.3	4.0799034901468
8	425	42.4	0.973
8	426	42.5	3.422573416463
8	427	42.6	0.973
8	428	42.7	5.2073044630872
8	429	42.8	1.2817736847468
8	430	42.9	0.973
8	431	43	1.969670600537
8	432	43.1	5.864667343029
11	32	3.1	2415.8694684898
11	33	3.2	2415.8694684898
11	34	3.3	2415.8458541166
11	35	3.4	2415.7987185706
11	36	3.5	2415.7306014945
11	37	3.6	2415.638728383
11	38	3.7	2415.5275085751
11	39	3.8	2415.3950951096
11	40	3.9	2415.2445562213
11	41	4	2415.0741647439
11	42	4.1	2414.8859801291
11	43	4.2	2414.6810501615
11	44	4.3	2414.4583887624
11	45	4.4	2414.2178794297
11	46	4.5	2413.9622219086
11	47	4.6	2413.6834514266
11	48	4.7	2413.3860548133
11	49	4.8	2413.0665266346
11	50	4.9	2412.731585501
11	51	5	2412.3748815422
11	52	5.1	2411.9954222892
11	53	5.2	2411.5955131029
11	54	5.3	2411.1730250326
11	55	5.4	2410.7288445589
11	56	5.5	2410.2649749629
11	57	5.6	2409.7877141517
11	58	5.7	2409.2915386111
11	59	5.8	2408.7784387588
11	60	5.9	2408.251944642
11	61	6	2407.7022566944
11	62	6.1	2407.2506839979
11	63	6.2	2406.8175651713
11	64	6.3	2406.3677413068
11	65	6.4	2405.9008289721
11	66	6.5	2405.4212019891
11	67	6.6	2404.9285166482
11	68	6.7	2404.4233581658
11	69	6.8	2403.9008657051
11	70	6.9	2403.3659072707
11	71	7	2402.8186477076
11	72	7.1	2402.2569066116
11	73	7.2	2401.6791318976
11	74	7.3	2401.0861782479
11	75	7.4	2400.4809528894
11	76	7.5	2399.8645701902
11	77	7.6	2399.2332890978
11	78	7.7	2398.583866004
11	79	7.8	2397.9238298895
11	80	7.9	2397.2544045739
11	81	8	2396.5709934873
11	82	8.1	2395.8698252906
11	83	8.2	2395.1571428191
11	84	8.3	2394.4302285317
11	85	8.4	2393.6861460457
11	86	8.5	2392.9281895976
11	87	8.6	2392.1548713309
11	88	8.7	2391.3716733354
11	89	8.8	2390.5765337199
11	90	8.9	2389.7710291139
11	91	9	2388.9520373686
11	92	9.1	2388.1231925822
11	93	9.2	2387.2845690843
11	94	9.3	2386.4277650899
11	95	9.4	2385.5586057701
11	96	9.5	2384.6735982734
11	97	9.6	2383.7753737309
11	98	9.7	2382.8622606857
11	99	9.8	2381.9360840004
11	100	9.9	2380.9942760124
11	101	10	2380.0411075773
11	102	10.1	2379.0778566878
11	103	10.2	2378.1101759298
11	104	10.3	2377.138455139
11	105	10.4	2376.1636931055
11	106	10.5	2375.191630946
11	107	10.6	2374.2180890265
11	108	10.7	2373.2510828464
11	109	10.8	2372.2812842792
11	110	10.9	2371.3075664288
11	111	11	2370.3373946896
11	112	11.1	2369.3658650925
11	113	11.2	2368.3926720045
11	114	11.3	2367.4236908515
11	115	11.4	2366.4488069974
11	116	11.5	2365.4762171941
11	117	11.6	2364.5007009886
11	118	11.7	2363.5278093457
11	119	11.8	2362.5532762029
11	120	11.9	2361.5864401337
11	121	12	2360.6155214445
11	122	12.1	2359.6406075037
11	123	12.2	2358.6690698422
11	124	12.3	2357.7015086651
11	125	12.4	2356.7313072528
11	126	12.5	2355.7633833647
11	127	12.6	2354.788838428
11	128	12.7	2353.8193847252
11	129	12.8	2352.8440234425
11	130	12.9	2351.8760161706
11	131	13	2350.9088155249
11	132	13.1	2349.9377508366
11	133	13.2	2348.9635668141
11	134	13.3	2347.98978861
11	135	13.4	2347.0195204659
11	136	13.5	2346.0452013108
11	137	13.6	2345.0757628536
11	138	13.7	2344.1055468869
11	139	13.8	2343.1365810263
11	140	13.9	2342.27402982
11	141	14	2341.4207608784
11	142	14.1	2340.5696662485
11	143	14.2	2339.7153293641
11	144	14.3	2338.8628050124
11	145	14.4	2338.0127282734
11	146	14.5	2337.1582469791
11	147	14.6	2336.3086457684
11	148	14.7	2335.4615513504
11	149	14.8	2335.1467616522
11	150	14.9	2334.9208644961
11	151	15	2334.6947275889
11	152	15.1	2334.4685549028
11	153	15.2	2334.2419488311
11	154	15.3	2334.0164656468
11	155	15.4	2333.9101427383
11	156	15.5	2333.8355010626
11	157	15.6	2334.0505050839
11	158	15.7	2334.4361686216
11	159	15.8	2335.0275576739
11	160	15.9	2335.948470928
11	161	16	2336.9492609331
11	162	16.1	2338.029717051
11	163	16.2	2339.108281662
11	164	16.3	2340.1885844173
11	165	16.4	2341.2624979559
11	166	16.5	2342.3431686453
11	167	16.6	2343.4168168488
11	168	16.7	2344.4926688101
11	169	16.8	2345.5540990301
11	170	16.9	2346.5765600412
11	171	17	2347.6020998323
11	172	17.1	2348.6255299923
11	173	17.2	2349.653804291
11	174	17.3	2350.6808124305
11	175	17.4	2351.708880579
11	176	17.5	2352.7386744758
11	177	17.6	2353.7693566894
11	178	17.7	2354.7917065122
11	179	17.8	2355.8201168376
11	180	17.9	2356.8495014847
11	181	18	2357.8741226126
11	182	18.1	2358.9043307323
11	183	18.2	2359.929468866
11	184	18.3	2360.9530857713
11	185	18.4	2362.2716395711
11	186	18.5	2363.6421789916
11	187	18.6	2365.0051250936
11	188	18.7	2366.3688953065
11	189	18.8	2367.7319103265
11	190	18.9	2369.098264456
11	191	19	2370.462154944
11	192	19.1	2371.8350753159
11	193	19.2	2373.2036544258
11	194	19.3	2374.5720299175
11	195	19.4	2375.9375885598
11	196	19.5	2377.29990113
11	197	19.6	2378.6668951242
11	198	19.7	2380.0404897688
11	199	19.8	2381.4103293993
11	200	19.9	2382.7579056991
11	201	20	2384.0778709672
11	202	20.1	2385.3663703802
11	203	20.2	2386.6339872063
11	204	20.3	2387.8704056807
11	205	20.4	2389.0858494772
11	206	20.5	2390.2663336771
11	207	20.6	2391.4265675914
11	208	20.7	2392.5672513392
11	209	20.8	2393.6792544572
11	210	20.9	2394.7663641567
11	211	21	2395.8192565426
11	212	21.1	2396.8549781273
11	213	21.2	2397.8608070256
11	214	21.3	2398.8343351913
11	215	21.4	2399.7941414941
11	216	21.5	2400.7205394203
11	217	21.6	2401.6374180666
11	218	21.7	2402.5437091285
11	219	21.8	2403.4456596102
11	220	21.9	2404.3277963583
11	221	22	2405.204171216
11	222	22.1	2406.0844248855
11	223	22.2	2406.9584505707
11	224	22.3	2407.8304949887
11	225	22.4	2408.7001626749
11	226	22.5	2409.5689162253
11	227	22.6	2410.4426571226
11	228	22.7	2411.2815141365
11	229	22.8	2412.093781866
11	230	22.9	2412.8697644556
11	231	23	2413.6274404762
11	232	23.1	2414.3452692438
11	233	23.2	2415.0360685335
11	234	23.3	2415.7103849218
11	235	23.4	2416.3548796026
11	236	23.5	2416.9677516994
11	237	23.6	2417.5483832981
11	238	23.7	2418.108229255
11	239	23.8	2418.6415057298
11	240	23.9	2419.1505720468
11	241	24	2419.6370769603
11	242	24.1	2420.0958222281
11	243	24.2	2420.5310307415
11	244	24.3	2420.9450858814
11	245	24.4	2421.3359192514
11	246	24.5	2421.7068855165
11	247	24.6	2422.0612566716
11	248	24.7	2422.3941583611
11	249	24.8	2422.7532610801
11	250	24.9	2423.1383180598
11	251	25	2423.5493293003
11	252	25.1	2423.9862948015
11	253	25.2	2424.4492145635
11	254	25.3	2424.9380885862
11	255	25.4	2425.4529168697
11	256	25.5	2425.9936994138
11	257	25.6	2426.5604362187
11	258	25.7	2427.1417700804
11	259	25.8	2427.7422500239
11	260	25.9	2428.3489331666
11	261	26	2428.9294774402
11	262	26.1	2429.4993003103
11	263	26.2	2429.9524449869
11	264	26.3	2430.3239304041
11	265	26.4	2430.5491943696
11	266	26.5	2430.7118570664
11	267	26.6	2430.8234350448
11	268	26.7	2430.9384470801
11	269	26.8	2431.0564408167
11	270	26.9	2431.1766664698
11	271	27	2431.3006829479
11	272	27.1	2431.427825698
11	273	27.2	2431.5570893107
11	274	27.3	2431.6887436527
11	275	27.4	2431.8232670724
11	276	27.5	2431.9599595987
11	277	27.6	2432.0986864427
11	278	27.7	2432.2398140319
11	279	27.8	2432.384311197
11	280	27.9	2432.5322793267
11	281	28	2432.6824009599
11	282	28.1	2432.8362908805
11	283	28.2	2432.9933199475
11	284	28.3	2433.153542889
11	285	28.4	2433.3167030447
11	286	28.5	2433.4834568315
11	287	28.6	2433.6529195457
11	288	28.7	2433.8256467623
11	289	28.8	2434.0004506554
11	290	28.9	2434.1786766378
11	291	29	2434.3601520398
11	292	29.1	2434.5436464486
11	293	29.2	2434.7307223758
11	294	29.3	2434.920184407
11	295	29.4	2435.1121327135
11	296	29.5	2435.3071921362
11	297	29.6	2435.5046491968
11	298	29.7	2435.7055736892
11	299	29.8	2435.9090268941
11	300	29.9	2436.1151085375
11	301	30	2436.3246406091
11	302	30.1	2436.5335342661
11	303	30.2	2436.7433299548
11	304	30.3	2436.953331062
11	305	30.4	2437.1620573334
11	306	30.5	2437.3723062103
11	307	30.6	2437.580895105
11	308	30.7	2437.7731534919
11	309	30.8	2437.9254954235
11	310	30.9	2438.0775386251
11	311	31	2438.229326318
11	312	31.1	2438.3299803259
11	313	31.2	2438.4269724395
11	314	31.3	2438.5236955816
11	315	31.4	2438.6206883972
11	316	31.5	2438.7014995789
11	317	31.6	2438.7787256476
11	318	31.7	2438.8556106422
11	319	31.8	2438.9324642667
11	320	31.9	2439.01571485
11	321	32	2439.1024845612
11	322	32.1	2439.1886723154
11	323	32.2	2439.2792546805
11	324	32.3	2439.3800235251
11	325	32.4	2439.4812666541
11	326	32.5	2439.5825021674
11	327	32.6	2439.6835857489
11	328	32.7	2439.7850168266
11	329	32.8	2439.8864848122
11	330	32.9	2439.987543643
11	331	33	2440.0883345667
11	332	33.1	2440.1890011905
11	333	33.2	2440.290146083
11	334	33.3	2440.3915709091
11	335	33.4	2440.4927618008
11	336	33.5	2440.5940675944
11	337	33.6	2440.6951731979
11	338	33.7	2440.795999216
11	339	33.8	2440.8967355656
11	340	33.9	2440.9980335112
11	341	34	2441.0987011781
11	342	34.1	2441.1999299027
11	343	34.2	2441.3011544008
11	344	34.3	2441.4024711344
11	345	34.4	2441.5036126287
11	346	34.5	2441.6042385049
11	347	34.6	2441.7055998581
11	348	34.7	2441.8064473371
11	349	34.8	2441.9073507852
11	350	34.9	2442.0081451053
11	351	35	2442.1096652204
11	352	35.1	2442.2109507151
11	353	35.2	2442.3120415064
11	354	35.3	2442.4131615631
11	355	35.4	2442.5137692842
11	356	35.5	2442.6145288202
11	357	35.6	2442.7159100942
11	358	35.7	2442.8170661926
11	359	35.8	2442.9182280625
11	360	35.9	2443.0191665168
11	361	36	2443.1199231752
11	362	36.1	2443.2206176987
11	363	36.2	2443.3212832317
11	364	36.3	2443.4221619638
11	365	36.4	2443.522946484
11	366	36.5	2443.6236077548
11	367	36.6	2443.7245337422
11	368	36.7	2443.8251816165
11	369	36.8	2443.925988383
11	370	36.9	2444.0274280462
11	371	37	2444.1284791926
11	372	37.1	2444.2293012826
11	373	37.2	2444.330176139
11	374	37.3	2444.4314501209
11	375	37.4	2444.5320619553
11	376	37.5	2444.6326973076
11	377	37.6	2444.7340963859
11	378	37.7	2444.8348202469
11	379	37.8	2444.9356303425
11	380	37.9	2445.0366456819
11	381	38	2445.1380632628
11	382	38.1	2445.238706779
11	383	38.2	2445.3394664858
11	384	38.3	2445.4403639066
11	385	38.4	2445.5413822661
11	386	38.5	2445.6421710626
11	387	38.6	2445.742930864
11	388	38.7	2445.8437239541
11	389	38.8	2445.9447901188
11	390	38.9	2446.0456719083
11	391	39	2446.1464512622
11	392	39.1	2446.2476373996
11	393	39.2	2446.3486795588
11	394	39.3	2446.4495304576
11	395	39.4	2446.5506136991
11	396	39.5	2446.6516762248
11	397	39.6	2446.7526880825
11	398	39.7	2446.8533877201
11	399	39.8	2446.9540639113
11	400	39.9	2447.055314035
11	401	40	2447.1567153357
11	402	40.1	2447.2575439028
11	403	40.2	2447.358800903
11	404	40.3	2447.4598754105
11	405	40.4	2447.560743092
11	406	40.5	2447.6617962677
11	407	40.6	2447.7631470627
11	408	40.7	2447.8639426132
11	409	40.8	2447.9651085121
11	410	40.9	2448.0662137769
11	411	41	2448.1673969661
11	412	41.1	2448.2689044791
11	413	41.2	2448.3702315355
11	414	41.3	2448.4708617342
11	415	41.4	2448.5719767349
11	416	41.5	2448.6734000536
11	417	41.6	2448.7748542691
11	418	41.7	2448.8755091238
11	419	41.8	2448.976764127
11	420	41.9	2449.077501455
11	421	42	2449.1781318098
11	422	42.1	2449.2796033344
11	423	42.2	2449.380829385
11	424	42.3	2449.4816643092
11	425	42.4	2449.5822590623
11	426	42.5	2449.6830894498
11	427	42.6	2449.7841525653
11	428	42.7	2449.8850433955
11	429	42.8	2449.9865749483
11	430	42.9	2450.0872719191
11	431	43	2450.1887678007
11	432	43.1	2450.2901292811
12	32	3.1	1578.0861504339
12	33	3.2	1578.0861504339
12	34	3.3	1578.094821508
12	35	3.4	1578.1121294349
12	36	3.5	1578.1371416692
12	37	3.6	1578.1708769966
12	38	3.7	1578.2117163297
12	39	3.8	1578.2603378631
12	40	3.9	1578.3156149574
12	41	4	1578.3781818189
12	42	4.1	1578.4472822268
12	43	4.2	1578.5225314414
12	44	4.3	1578.6042915452
12	45	4.4	1578.6926053166
12	46	4.5	1578.7864814242
12	47	4.6	1578.8888444901
12	48	4.7	1578.9980469747
12	49	4.8	1579.1153760543
12	50	4.9	1579.23836469
12	51	5	1579.3693445222
12	52	5.1	1579.5086799795
12	53	5.2	1579.6555245453
12	54	5.3	1579.8106599599
12	55	5.4	1579.973760712
12	56	5.5	1580.1440912066
12	57	5.6	1580.3193388861
12	58	5.7	1580.5015319549
12	59	5.8	1580.6899395427
12	60	5.9	1580.8832654338
12	61	6	1581.0851079794
12	62	6.1	1581.463551742
12	63	6.2	1581.9022414442
12	64	6.3	1582.3578510489
12	65	6.4	1582.8307689195
12	66	6.5	1583.3165649772
12	67	6.6	1583.815587353
12	68	6.7	1584.327243302
12	69	6.8	1584.8564561838
12	70	6.9	1585.3982953783
12	71	7	1585.9525939226
12	72	7.1	1586.5215602648
12	73	7.2	1587.1067664521
12	74	7.3	1587.707346811
12	75	7.4	1588.3203567201
12	76	7.5	1588.9446674781
12	77	7.6	1589.5840682564
12	78	7.7	1590.2418443821
12	79	7.8	1590.910370036
12	80	7.9	1591.5884056566
12	81	8	1592.2806069376
12	82	8.1	1592.9907937236
12	83	8.2	1593.7126428848
12	84	8.3	1594.4489069143
12	85	8.4	1595.2025599638
12	86	8.5	1595.9702654257
12	87	8.6	1596.7535302928
12	88	8.7	1597.5468019648
12	89	8.8	1598.3521688525
12	90	8.9	1599.1680340478
12	91	9	1599.9975598576
12	92	9.1	1600.8370654397
12	93	9.2	1601.6864755098
12	94	9.3	1602.554299918
12	95	9.4	1603.4346385691
12	96	9.5	1604.33102924
12	97	9.6	1605.2408069577
12	98	9.7	1606.1656646766
12	99	9.8	1607.1037540641
12	100	9.9	1608.0576758068
12	101	10	1609.0231041182
12	102	10.1	1609.9987445669
12	103	10.2	1610.9788718615
12	104	10.3	1611.9630911537
12	105	10.4	1612.9503908046
12	106	10.5	1613.9349558558
12	107	10.6	1614.9210197004
12	108	10.7	1615.9004637403
12	109	10.8	1616.8827360841
12	110	10.9	1617.8689781222
12	111	11	1618.8516284376
12	112	11.1	1619.8356540762
12	113	11.2	1620.8213646021
12	114	11.3	1621.8028090186
12	115	11.4	1622.7902320577
12	116	11.5	1623.7753315391
12	117	11.6	1624.7633950626
12	118	11.7	1625.7488002665
12	119	11.8	1626.7358680833
12	120	11.9	1627.7151398249
12	121	12	1628.6985466974
12	122	12.1	1629.6860002102
12	123	12.2	1630.6700340174
12	124	12.3	1631.6500401935
12	125	12.4	1632.6327205636
12	126	12.5	1633.6130941156
12	127	12.6	1634.6001738785
12	128	12.7	1635.5820969222
12	129	12.8	1636.57000353
12	130	12.9	1637.5504615391
12	131	13	1638.5301025463
12	132	13.1	1639.5136572961
12	133	13.2	1640.5003715027
12	134	13.3	1641.4866746701
12	135	13.4	1642.469422631
12	136	13.5	1643.4562737076
12	137	13.6	1644.43818131
12	138	13.7	1645.420876422
12	139	13.8	1646.4023053488
12	140	13.9	1647.4833626039
12	141	14	1648.5756796543
12	142	14.1	1649.6652132459
12	143	14.2	1650.7588974293
12	144	14.3	1651.8502612878
12	145	14.4	1652.9384918213
12	146	14.5	1654.0323608713
12	147	14.6	1655.1199826552
12	148	14.7	1656.2043953538
12	149	14.8	1657.5237563197
12	150	14.9	1658.8841966549
12	151	15	1660.2460808652
12	152	15.1	1661.608180549
12	153	15.2	1662.9728902495
12	154	15.3	1664.3308374854
12	155	15.4	1665.7029778752
12	156	15.5	1667.0783210248
12	157	15.6	1668.442060818
12	158	15.7	1669.7500089677
12	159	15.8	1671.0013539186
12	160	15.9	1672.0268148454
12	161	16	1672.980880823
12	162	16.1	1673.8534141136
12	163	16.2	1674.7244198993
12	164	16.3	1675.5968293408
12	165	16.4	1676.4640791053
12	166	16.5	1677.336785676
12	167	16.6	1678.2038211664
12	168	16.7	1679.072636324
12	169	16.8	1679.9612988736
12	170	16.9	1680.8833798235
12	171	17	1681.8082372937
12	172	17.1	1682.7311922461
12	173	17.2	1683.6585157644
12	174	17.3	1684.5846974282
12	175	17.4	1685.5118350349
12	176	17.5	1686.4405289646
12	177	17.6	1687.3700240003
12	178	17.7	1688.2920046775
12	179	17.8	1689.2194508677
12	180	17.9	1690.1477757255
12	181	18	1691.0718047228
12	182	18.1	1692.0008722087
12	183	18.2	1692.9253674541
12	184	18.3	1693.8484908184
12	185	18.4	1694.1636284292
12	186	18.5	1694.3684807876
12	187	18.6	1694.5721981851
12	188	18.7	1694.7760387603
12	189	18.8	1694.9797664592
12	190	18.9	1695.1839932492
12	191	19	1695.3878518017
12	192	19.1	1695.5930600381
12	193	19.2	1695.7976193922
12	194	19.3	1696.0021483116
12	195	19.4	1696.2062562015
12	196	19.5	1696.4037926951
12	197	19.6	1696.5664954875
12	198	19.7	1696.7299839044
12	199	19.8	1696.8930253908
12	200	19.9	1697.0534170438
12	201	20	1697.2105223676
12	202	20.1	1697.3638825528
12	203	20.2	1697.5117238183
12	204	20.3	1697.6286354419
12	205	20.4	1697.7435637694
12	206	20.5	1697.8551864335
12	207	20.6	1697.9648942985
12	208	20.7	1698.0727535635
12	209	20.8	1698.1779008843
12	210	20.9	1698.2806943664
12	211	21	1698.3802523725
12	212	21.1	1698.4781867648
12	213	21.2	1698.5732946042
12	214	21.3	1698.6653481927
12	215	21.4	1698.7561042886
12	216	21.5	1698.8437013989
12	217	21.6	1698.9303983971
12	218	21.7	1699.0160942692
12	219	21.8	1699.1013797102
12	220	21.9	1699.1847916311
12	221	22	1699.2676587263
12	222	22.1	1699.3508925885
12	223	22.2	1699.433537554
12	224	22.3	1699.5159951774
12	225	22.4	1699.5982280644
12	226	22.5	1699.6803745143
12	227	22.6	1699.7629925506
12	228	22.7	1699.8423120836
12	229	22.8	1699.9191174209
12	230	22.9	1699.9924917566
12	231	23	1700.0641350849
12	232	23.1	1700.1320105875
[...]
84	411	41	-0.80429284651764
84	412	41.1	1.0094432828249
84	413	41.2	0.15132628083228
84	414	41.3	-1.0398046171991
84	415	41.4	0.15251756873912
84	416	41.5	-0.074107164773149
84	417	41.6	-0.0072982159210433
84	418	41.7	0.34270189700182
84	419	41.8	0.57486263050233
84	420	41.9	-0.20967130865902
84	421	42	-0.34173017214053
84	422	42.1	-0.22025561030022
84	423	42.2	-0.24457130630035
84	424	42.3	-0.16233607768081
84	425	42.4	0.31026283595711
84	426	42.5	0.9021521846298
84	427	42.6	-0.1982607055921
84	428	42.7	-0.3314844121458
84	429	42.8	0.33870925332884
84	430	42.9	-0.45328751993365
84	431	43	0.10389577017632
84	432	43.1	-0.6286000969587
85	334	33.3	1.4476458149082
85	335	33.4	1.626126452814
85	336	33.5	1.768834011445
85	337	33.6	1.9613766064669
85	338	33.7	1.8742207498846
85	339	33.8	2.1818075685866
85	340	33.9	2.3076152683394
85	341	34	2.5704030730942
85	342	34.1	2.6112526164014
85	343	34.2	2.1148691853661
85	344	34.3	2.9078677611564
85	345	34.4	2.6251926097154
85	346	34.5	3.2865490357122
85	347	34.6	3.0254168938381
85	348	34.7	3.018067626058
85	349	34.8	2.5821225481882
85	350	34.9	3.7266007989914
85	351	35	3.5222203599383
85	352	35.1	2.874992000333
85	353	35.2	3.9521762558393
85	354	35.3	3.8986059588611
85	355	35.4	4.2419917044651
85	356	35.5	3.4182853392841
85	357	35.6	4.3864733777623
85	358	35.7	3.5439987670039
85	359	35.8	4.6879013110732
85	360	35.9	4.6069806271927
85	361	36	5.2952056955707
85	362	36.1	5.4150078226839
85	363	36.2	4.9023358006254
85	364	36.3	4.5531567253088
85	365	36.4	5.5670041257154
85	366	36.5	4.5733728390235
85	367	36.6	5.6056804452173
85	368	36.7	4.8962152339475
85	369	36.8	6.4860500463244
85	370	36.9	4.4163599640739
85	371	37	6.5464428774183
85	372	37.1	6.9351531761905
85	373	37.2	5.3131007379904
85	374	37.3	5.5564352786405
85	375	37.4	6.3771297158224
85	376	37.5	5.1950453698863
85	377	37.6	6.2966970645223
85	378	37.7	6.8651031654418
85	379	37.8	5.6068332906197
85	380	37.9	7.2535033171615
85	381	38	8.1195286312228
85	382	38.1	6.0893583943462
85	383	38.2	7.5615578485882
85	384	38.3	6.4421124444607
85	385	38.4	5.9130778001478
85	386	38.5	7.6569346217417
85	387	38.6	8.8890012384697
85	388	38.7	7.3585903861327
85	389	38.8	8.4497446167378
85	390	38.9	7.7558479975864
85	391	39	6.5227751293503
85	392	39.1	6.5828942146668
85	393	39.2	6.0731650244525
85	394	39.3	9.9228630812386
85	395	39.4	9.5401718174251
85	396	39.5	8.1050771907594
85	397	39.6	6.6567102677794
85	398	39.7	8.7788866834227
85	399	39.8	4.799729334206
85	400	39.9	1.448686421382
85	401	40	4.129721547824
85	402	40.1	0.973
85	403	40.2	2.8832419907364
85	404	40.3	2.7720445206768
85	405	40.4	1.0961527920705
85	406	40.5	0.973
85	407	40.6	2.70988876229
85	408	40.7	3.8401187519659
85	409	40.8	1.5452209816975
85	410	40.9	2.7721739771511
85	411	41	0.973
85	412	41.1	5.4000110469729
85	413	41.2	2.5335818201474
85	414	41.3	0.973
85	415	41.4	2.5253157338735
85	416	41.5	1.7711568525775
85	417	41.6	1.9931095537901
85	418	41.7	3.1624915011929
85	419	41.8	3.94969830167
85	420	41.9	1.3241890582169
85	421	42	0.973
85	422	42.1	1.2861281934033
85	423	42.2	1.2042115977189
85	424	42.3	1.4762914177678
85	425	42.4	3.0492647966916
85	426	42.5	5.045634250414
85	427	42.6	1.3625454926844
85	428	42.7	0.973
85	429	42.8	3.1568333600273
85	430	42.9	0.973
85	431	43	2.367802870052
85	432	43.1	0.973
88	362	36.1	2415.8694684898
88	363	36.2	2415.8694684898
88	364	36.3	2415.8452490006
88	365	36.4	2415.7989208082
88	366	36.5	2415.7311912926
88	367	36.6	2415.6432552804
88	368	36.7	2415.5352805363
88	369	36.8	2415.4072226844
88	370	36.9	2415.2550002155
88	371	37	2415.0796828236
88	372	37.1	2414.8837607935
88	373	37.2	2414.6654804738
88	374	37.3	2414.427504992
88	375	37.4	2414.1669696058
88	376	37.5	2413.882730199
88	377	37.6	2413.5791805648
88	378	37.7	2413.2573272056
88	379	37.8	2412.9188612604
88	380	37.9	2412.5635563015
88	381	38	2412.1841066603
88	382	38.1	2411.7845273567
88	383	38.2	2411.3706835262
88	384	38.3	2410.9443534722
88	385	38.4	2410.5044096498
88	386	38.5	2410.0427551552
88	387	38.6	2409.5571484256
88	388	38.7	2409.0538801291
88	389	38.8	2408.5343319182
88	390	38.9	2407.9927746786
88	391	39	2407.4687641392
88	392	39.1	2407.0337805712
88	393	39.2	2406.5869970378
88	394	39.3	2406.1290295079
88	395	39.4	2405.6595866794
88	396	39.5	2405.1782877919
88	397	39.6	2404.6818725202
88	398	39.7	2404.1760113251
88	399	39.8	2403.6552226379
88	400	39.9	2403.1243752358
88	401	40	2402.5758105731
88	402	40.1	2402.0102053639
88	403	40.2	2401.4349575841
88	404	40.3	2400.8456546137
88	405	40.4	2400.2445189742
88	406	40.5	2399.6327493185
88	407	40.6	2399.0076267576
88	408	40.7	2398.3712619331
88	409	40.8	2397.7225018651
88	410	40.9	2397.0619866741
88	411	41	2396.3920115508
88	412	41.1	2395.7070533537
88	413	41.2	2395.0059091583
88	414	41.3	2394.2937878481
88	415	41.4	2393.5688920367
88	416	41.5	2392.8316635711
88	417	41.6	2392.0812679433
88	418	41.7	2391.3170903486
88	419	41.8	2390.5410561949
88	420	41.9	2389.7499404411
88	421	42	2388.9482362892
88	422	42.1	2388.128653922
88	423	42.2	2387.294779745
88	424	42.3	2386.4449942964
88	425	42.4	2385.5790935524
88	426	42.5	2384.7009825822
88	427	42.6	2383.8129660566
88	428	42.7	2382.9120321075
88	429	42.8	2381.9964225848
88	430	42.9	2381.0646242362
88	431	43	2380.1222806303
88	432	43.1	2379.1666120953
89	362	36.1	1578.0861504339
89	363	36.2	1578.0861504339
89	364	36.3	1578.0950437039
89	365	36.4	1578.1120551741
89	366	36.5	1578.1369250985
89	367	36.6	1578.1692147432
89	368	36.7	1578.2088625059
89	369	36.8	1578.2558846809
89	370	36.9	1578.3117799768
89	371	37	1578.3761556083
89	372	37.1	1578.4480971554
89	373	37.2	1578.5282485494
89	374	37.3	1578.6156319045
89	375	37.4	1578.7112991381
89	376	37.5	1578.8156703655
89	377	37.6	1578.927132207
89	378	37.7	1579.0453150803
89	379	37.8	1579.1695980085
89	380	37.9	1579.3000641353
89	381	38	1579.4393960638
89	382	38.1	1579.5861194981
89	383	38.2	1579.7380807931
89	384	38.3	1579.8946269639
89	385	38.4	1580.0561720394
89	386	38.5	1580.2256891597
89	387	38.6	1580.4040014166
89	388	38.7	1580.5887989085
89	389	38.8	1580.7795743002
89	390	38.9	1580.9784312919
89	391	39	1581.2426666021
89	392	39.1	1581.6832450312
89	393	39.2	1582.1357751992
89	394	39.3	1582.599633215
89	395	39.4	1583.0751141272
89	396	39.5	1583.5626035938
89	397	39.6	1584.065403875
89	398	39.7	1584.5777715761
89	399	39.8	1585.1052587694
89	400	39.9	1585.6429340551
89	401	40	1586.1985544851
89	402	40.1	1586.7714346414
89	403	40.2	1587.3540813932
89	404	40.3	1587.9509641165
89	405	40.4	1588.559831704
89	406	40.5	1589.1794700846
89	407	40.6	1589.8126331186
89	408	40.7	1590.4571830165
89	409	40.8	1591.1142875887
89	410	40.9	1591.7832984813
89	411	41	1592.4618909815
89	412	41.1	1593.1556592714
89	413	41.2	1593.865821748
89	414	41.3	1594.5871025296
89	415	41.4	1595.3213221217
89	416	41.5	1596.0680329921
89	417	41.6	1596.828080385
89	418	41.7	1597.6020870106
89	419	41.8	1598.3881026981
89	420	41.9	1599.1893939683
89	421	42	1600.0014098268
89	422	42.1	1600.8315338548
89	423	42.2	1601.6761335172
89	424	42.3	1602.5368491057
89	425	42.4	1603.4138872679
89	426	42.5	1604.3032927075
89	427	42.6	1605.2027311102
89	428	42.7	1606.1152530834
89	429	42.8	1607.0426393906
89	430	42.9	1607.9864227483
89	431	43	1608.9408869985
89	432	43.1	1609.9088475667
90	363	36.2	0.25802031963109
90	364	36.3	0.49355355387754
90	365	36.4	0.7215507764104
90	366	36.5	0.93681901089283
90	367	36.6	1.1502999805023
90	368	36.7	1.3642537030378
90	369	36.8	1.6216894453746
90	370	36.9	1.8677292917818
90	371	37	2.0872390955609
90	372	37.1	2.325431279187
90	373	37.2	2.5352520546507
90	374	37.3	2.7755921249934
90	375	37.4	3.0281209431639
90	376	37.5	3.2338408471578
90	377	37.6	3.428838064501
90	378	37.7	3.6058188718282
90	379	37.8	3.7852119063334
90	380	37.9	4.0424352775122
90	381	38	4.2568849649075
90	382	38.1	4.4088509197118
90	383	38.2	4.5418718654014
90	384	38.3	4.6869050186946
90	385	38.4	4.9181978622572
90	386	38.5	5.1733710134918
90	387	38.6	5.3615270496024
90	388	38.7	5.5349637679457
90	389	38.8	5.7694351287796
90	390	38.9	5.9808069875305
90	391	39	6.1916145493653
90	392	39.1	6.3595768433324
90	393	39.2	6.5187713522328
90	394	39.3	6.6821122931623
90	395	39.4	6.850873030357
90	396	39.5	7.0660416740765
90	397	39.6	7.2004962178347
90	398	39.7	7.4129761443664
90	399	39.8	7.5561532471938
90	400	39.9	7.8083431123154
90	401	40	8.050900539563
90	402	40.1	8.1881541864229
90	403	40.2	8.388217658692
90	404	40.3	8.5566454586298
90	405	40.4	8.7080114742116
90	406	40.5	8.8980785223007
90	407	40.6	9.0581024124244
90	408	40.7	9.2345379733834
90	409	40.8	9.4018619739617
90	410	40.9	9.5365159191102
90	411	41	9.7497870089956
90	412	41.1	9.9801806802958
90	413	41.2	10.136430408014
90	414	41.3	10.318264375157
90	415	41.4	10.493809030827
90	416	41.5	10.681232186433
90	417	41.6	10.877406556928
90	418	41.7	11.046174407432
90	419	41.8	11.260847932136
90	420	41.9	11.411564614203
90	421	42	11.666045530143
90	422	42.1	11.869477071721
90	423	42.2	12.095960251377
90	424	42.3	12.325347529836
90	425	42.4	12.499149530258
90	426	42.5	12.640146536613
90	427	42.6	12.82401487941
90	428	42.7	13.032908965543
90	429	42.8	13.263342886088
90	430	42.9	13.413445498536
90	431	43	13.603114326806
90	432	43.1	13.804379414358
91	364	36.3	2.3553323424645
91	365	36.4	2.2799722253286
91	366	36.5	2.1526823448243
91	367	36.6	2.1348096960945
91	368	36.7	2.1395372253551
91	369	36.8	2.5743574233685
91	370	36.9	2.4603984640714
91	371	37	2.1950980377911
91	372	37.1	2.3819218362615
91	373	37.2	2.0982077546371
91	374	37.3	2.4034007034264
91	375	37.4	2.5252881817054
91	376	37.5	2.0571990399389
91	377	37.6	1.9499721734319
91	378	37.7	1.769808073272
91	379	37.8	1.7939303450519
91	380	37.9	2.5722337117884
91	381	38	2.1444968739524
91	382	38.1	1.5196595480433
91	383	38.2	1.3302094568964
91	384	38.3	1.4503315329319
91	385	38.4	2.3129284356255
91	386	38.5	2.5517315123463
91	387	38.6	1.8815603611059
91	388	38.7	1.7343671834329
91	389	38.8	2.3447136083385
91	390	38.9	2.1137185875094
91	391	39	2.1080756183481
91	392	39.1	1.6796229396714
91	393	39.2	1.591945089004
91	394	39.3	1.6334094092948
91	395	39.4	1.6876073719468
91	396	39.5	2.1516864371952
91	397	39.6	1.3445454375818
91	398	39.7	2.1247992653167
91	399	39.8	1.4317710282747
91	400	39.9	2.5218986512162
91	401	40	2.4255742724752
91	402	40.1	1.372536468599
91	403	40.2	2.000634722691
91	404	40.3	1.6842779993778
91	405	40.4	1.5136601558188
91	406	40.5	1.9006704808911
91	407	40.6	1.600238901237
91	408	40.7	1.7643556095893
91	409	40.8	1.6732400057837
91	410	40.9	1.3465394514846
91	411	41	2.1327108988538
91	412	41.1	2.3039367130026
91	413	41.2	1.5624972771853
91	414	41.3	1.8183396714274
91	415	41.4	1.7554465566995
91	416	41.5	1.8742315560579
91	417	41.6	1.9617437049514
91	418	41.7	1.6876785050379
91	419	41.8	2.1467352470383
91	420	41.9	1.5071668206714
91	421	42	2.5448091594037
91	422	42.1	2.0343154157745
91	423	42.2	2.2648317965679
91	424	42.3	2.2938727845903
91	425	42.4	1.7380200042157
91	426	42.5	1.4099700635532
91	427	42.6	1.8386834279634
91	428	42.7	2.0889408613322
91	429	42.8	2.3043392054504
91	430	42.9	1.5010261244839
91	431	43	1.8966882826993
91	432	43.1	2.0126508755144
92	364	36.3	1.413978448109
92	365	36.4	1.5413152037434
92	366	36.5	1.6412864737399
92	367	36.6	1.7574479217463
92	368	36.7	1.8794942122603
92	369	36.8	2.1947530714504
92	370	36.9	2.3081824930422
92	371	37	2.3157167941082
92	372	37.1	2.5582384018784
92	373	37.2	2.5158019149552
92	374	37.3	2.8535471698041
92	375	37.4	3.1015391890361
92	376	37.5	2.8724142919787
92	377	37.6	2.8904906359887
92	378	37.7	2.8262430361688
92	379	37.8	2.934096653287
92	380	37.9	3.8170487752564
92	381	38	3.5225374101578
92	382	38.1	2.9452882823347
92	383	38.2	2.7937905618114
92	384	38.3	2.9838208467643
92	385	38.4	4.0997246522148
92	386	38.5	4.5538080712594
92	387	38.6	3.8140945730142
92	388	38.7	3.7061891147571
92	389	38.8	4.6662275323207
92	390	38.9	4.4649371302912
92	391	39	4.5762371414273
92	392	39.1	4.0148341518304
92	393	39.2	3.9510392852693
92	394	39.3	4.0903319523193
92	395	39.4	4.2565315111501
92	396	39.5	5.1475984741255
92	397	39.6	3.8250553347477
92	398	39.7	5.3012451699413
92	399	39.8	4.1216653067489
92	400	39.9	6.2763897188083
92	401	40	6.2528437846325
92	402	40.1	4.2641990879574
92	403	40.2	5.6135749154797
92	404	40.3	5.0538830473286
92	405	40.4	4.7676882215869
92	406	40.5	5.6801933427521
92	407	40.6	5.108945601429
92	408	40.7	5.5548367732087
92	409	40.8	5.4316285976252
92	410	40.9	4.7449137806427
92	411	41	6.677174305861
92	412	41.1	7.2247574438268
92	413	41.2	5.51218601212
92	414	41.3	6.2309042996544
92	415	41.4	6.1625107433862
92	416	41.5	6.5624399774283
92	417	41.6	6.8962398417333
92	418	41.7	6.2601949000522
92	419	41.8	7.6110840704839
92	420	41.9	5.9427648996314
92	421	42	8.9742149916071
92	422	42.1	7.6563105671776
92	423	42.2	8.4592710915014
92	424	42.3	8.691284338547
92	425	42.4	7.1287786808385
92	426	42.5	6.2014821732631
92	427	42.6	7.6060676759782
92	428	42.7	8.5044283956151
92	429	42.8	9.3311066324692
92	430	42.9	6.8322851979662
92	431	43	8.2167579975333
92	432	43.1	8.7147313322589
95	392	39.1	2415.8694684898
95	393	39.2	2415.8694684898
95	394	39.3	2415.8454023963
95	395	39.4	2415.7972882222
95	396	39.5	2415.7249109522
95	397	39.6	2415.6307528225
95	398	39.7	2415.5159966497
95	399	39.8	2415.3827449073
95	400	39.9	2415.2262621967
95	401	40	2415.0532698481
95	402	40.1	2414.8643638575
95	403	40.2	2414.6571301558
95	404	40.3	2414.4360137852
95	405	40.4	2414.1931538408
95	406	40.5	2413.9329253261
95	407	40.6	2413.6515246894
95	408	40.7	2413.3494146564
95	409	40.8	2413.0300334675
95	410	40.9	2412.6884060465
95	411	41	2412.3301325873
95	412	41.1	2411.9505358023
95	413	41.2	2411.5550698993
95	414	41.3	2411.1449134258
95	415	41.4	2410.7103652576
95	416	41.5	2410.2608199827
95	417	41.6	2409.7962905378
95	418	41.7	2409.3170155789
95	419	41.8	2408.821193779
95	420	41.9	2408.3091476931
95	421	42	2407.78200112
95	422	42.1	2407.318565644
95	423	42.2	2406.8948727041
95	424	42.3	2406.4532718468
95	425	42.4	2406.0016139871
95	426	42.5	2405.5391884884
95	427	42.6	2405.0660108334
95	428	42.7	2404.580566116
95	429	42.8	2404.080482697
95	430	42.9	2403.5652988877
95	431	43	2403.0320993776
95	432	43.1	2402.4864640692
96	392	39.1	1578.0861504339
96	393	39.2	1578.0861504339
96	394	39.3	1578.0949873775
96	395	39.4	1578.1126546515
96	396	39.5	1578.1392312068
96	397	39.6	1578.1738055805
96	398	39.7	1578.2159434482
96	399	39.8	1578.2648727931
96	400	39.9	1578.3223324278
96	401	40	1578.385854315
96	402	40.1	1578.4552196087
96	403	40.2	1578.5313147428
96	404	40.3	1578.6125075202
96	405	40.4	1578.7016844237
96	406	40.5	1578.7972389767
96	407	40.6	1578.9005678212
96	408	40.7	1579.0115010487
96	409	40.8	1579.1287761545
96	410	40.9	1579.2542199604
96	411	41	1579.3857761053
96	412	41.1	1579.5251620635
96	413	41.2	1579.6703750789
96	414	41.3	1579.8209823957
96	415	41.4	1579.9805462146
96	416	41.5	1580.1456168937
96	417	41.6	1580.3161896812
96	418	41.7	1580.4921769453
96	419	41.8	1580.6742401225
96	420	41.9	1580.8622607728
96	421	42	1581.055826243
96	422	42.1	1581.3947969861
96	423	42.2	1581.8239395637
96	424	42.3	1582.2712203953
96	425	42.4	1582.7286875844
96	426	42.5	1583.1970609082
96	427	42.6	1583.6763246851
96	428	42.7	1584.1680133063
96	429	42.8	1584.6745289154
96	430	42.9	1585.1963391397
96	431	43	1585.7363967868
96	432	43.1	1586.2890501851
97	393	39.2	0.2563861307737
97	394	39.3	0.5125803623955
97	395	39.4	0.77106524331216
97	396	39.5	1.0031058235388
97	397	39.6	1.2225453671953
97	398	39.7	1.4195863847825
97	399	39.8	1.6670755768817
97	400	39.9	1.8429596357787
97	401	40	2.0124943007643
97	402	40.1	2.2077470504809
97	403	40.2	2.3556449132438
97	404	40.3	2.5872882709841
97	405	40.4	2.7723228967006
97	406	40.5	2.9978783403502
97	407	40.6	3.218504176338
97	408	40.7	3.4025010030626
97	409	40.8	3.6394993906052
97	410	40.9	3.8168365780756
97	411	41	4.0440028615997
97	412	41.1	4.2130631926588
97	413	41.2	4.3695679681844
97	414	41.3	4.6294228643787
97	415	41.4	4.7891932948262
97	416	41.5	4.9488259084548
97	417	41.6	5.1059160184467
97	418	41.7	5.2821964156118
97	419	41.8	5.4550405016358
97	420	41.9	5.6159122885743
97	421	42	5.8732939257126
97	422	42.1	6.0309022338761
97	423	42.2	6.2858059346771
97	424	42.3	6.4289586566135
97	425	42.4	6.5822266804779
97	426	42.5	6.7352743156769
97	427	42.6	6.9098853305101
97	428	42.7	7.1182545756481
97	429	42.8	7.3331955603932
97	430	42.9	7.5896334652279
97	431	43	7.7666462889991
97	432	43.1	7.96661827995
98	394	39.3	2.5619423162181
98	395	39.4	2.5848488091666
98	396	39.5	2.3204058022661
98	397	39.6	2.1943954365652
98	398	39.7	1.9704101758725
98	399	39.8	2.4748919209911
98	400	39.9	1.7588405889706
98	401	40	1.695346649856
98	402	40.1	1.952527497166
98	403	40.2	1.4789786276293
98	404	40.3	2.3164335774025
98	405	40.4	1.8503462571651
98	406	40.5	2.2555544364965
98	407	40.6	2.2062583598774
98	408	40.7	1.8399682672462
98	409	40.8	2.3699838754255
98	410	40.9	1.773371874704
98	411	41	2.2716628352413
98	412	41.1	1.6906033105915
98	413	41.2	1.5650477552554
98	414	41.3	2.598548961943
98	415	41.4	1.5977043044753
98	416	41.5	1.5963261362864
98	417	41.6	1.5709010999184
98	418	41.7	1.762803971651
98	419	41.8	1.7284408602398
98	420	41.9	1.6087178693851
98	421	42	2.5738163713831
98	422	42.1	1.5760830816347
98	423	42.2	2.5490370080108
98	424	42.3	1.4315272193635
98	425	42.4	1.5326802386437
98	426	42.5	1.5304763519904
98	427	42.6	1.7461101483321
98	428	42.7	2.0836924513802
98	429	42.8	2.1494098474504
98	430	42.9	2.5643790483475
98	431	43	1.7701282377122
98	432	43.1	1.9997199095087
99	394	39.3	1.4512208361092
99	395	39.4	1.6275725219292
99	396	39.5	1.7194376973686
99	397	39.6	1.815686648568
99	398	39.7	1.8528624808755
99	399	39.8	2.1851732030293
99	400	39.9	1.9806774317596
99	401	40	2.0300976817573
99	402	40.1	2.2563713204108
99	403	40.2	2.0644754363225
99	404	40.3	2.6807915624259
99	405	40.4	2.4819767229415
99	406	40.5	2.886719140281
99	407	40.6	2.9796458000942
99	408	40.7	2.7865545500979
99	409	40.8	3.3687816352775
99	410	40.9	2.9305105106446
99	411	41	3.5251654700626
99	412	41.1	3.0366974736925
99	413	41.2	2.9765934011747
99	414	41.3	4.2416662543625
99	415	41.4	3.1952414544462
99	416	41.5	3.2638133569842
99	417	41.6	3.3016405041675
99	418	41.7	3.6224940276133
99	419	41.8	3.6604671401558
99	420	41.9	3.5745683521207
99	421	42	5.0551879029649
99	422	42.1	3.7119483792114
99	423	42.2	5.2976537838086
99	424	42.3	3.6626580125379
99	425	42.4	3.8851873410604
99	426	42.5	3.9474058459219
99	427	42.6	4.3815772172963
99	428	42.7	5.0612767507131
99	429	42.8	5.2988350965927
99	430	42.9	6.2070203017681
99	431	43	4.8411999618538
99	432	43.1	5.3803902862826
102	422	42.1	2415.8694684898
102	423	42.2	2415.8694684898
102	424	42.3	2415.8459664703
102	425	42.4	2415.7999845116
102	426	42.5	2415.730100723
102	427	42.6	2415.6365026816
102	428	42.7	2415.521987333
102	429	42.8	2415.3871628271
102	430	42.9	2415.2346765271
102	431	43	2415.0646663394
102	432	43.1	2414.8742022683
103	422	42.1	1578.0861504339
103	423	42.2	1578.0861504339
103	424	42.3	1578.0947802523
103	425	42.4	1578.1116645876
103	426	42.5	1578.1373255504
103	427	42.6	1578.1716942629
103	428	42.7	1578.2137437006
103	429	42.8	1578.2632505558
103	430	42.9	1578.3192427298
103	431	43	1578.3816695828
103	432	43.1	1578.4516069954
104	423	42.2	0.25037681508181
104	424	42.3	0.48986498310178
104	425	42.4	0.74450114533361
104	426	42.5	0.99713896861442
104	427	42.6	1.2199797677443
104	428	42.7	1.4363416898822
104	429	42.8	1.6245001480235
104	430	42.9	1.8111894319259
104	431	43	2.0290931826685
104	432	43.1	2.1975489206579
105	424	42.3	2.3948816801997
105	425	42.4	2.5463616223184
105	426	42.5	2.526378232808
105	427	42.6	2.2284079912991
105	428	42.7	2.1636192213784
105	429	42.8	1.8815845814134
105	430	42.9	1.8668928390238
105	431	43	2.1790375074258
105	432	43.1	1.6845573798946
106	424	42.3	1.4163755964723
106	425	42.4	1.6028332204117
106	426	42.5	1.7653087667752
106	427	42.6	1.8242052135982
106	428	42.7	1.9285177217667
106	429	42.8	1.925410818549
106	430	42.9	2.0128131175753
106	431	43	2.2742295151529
106	432	43.1	2.1091473639
