version 2
run debug-0-20180107-18:00:45-10737
attr configname debug
attr datetime 20180107-18:00:45
attr experiment debug
attr inifile omnetpp.ini
attr iterationvars ""
attr iterationvars2 $repetition=0
attr measurement ""
attr network intersection
attr processid 10737
attr repetition 0
attr replication #0
attr resultdir results
attr runnumber 0
attr seedset 0
param **.coreDebug false
param **.debug false
param *.**.nic.mac1609_4.bitrate 18Mbps
param *.**.nic.mac1609_4.txPower 1000mW
param *.**.nic.mac1609_4.useServiceChannel false
param *.**.nic.phy80211p.analogueModels "xmldoc(\"config.xml\")"
param *.**.nic.phy80211p.decider "xmldoc(\"config.xml\")"
param *.**.nic.phy80211p.sensitivity -89dBm
param *.**.nic.phy80211p.thermalNoise -110dBm
param *.**.nic.phy80211p.usePropagationDelay true
param *.**.nic.phy80211p.useThermalNoise true
param *.annotations.draw false
param *.connectionManager.alpha 2.0
param *.connectionManager.carrierFrequency "5.890e9 Hz"
param *.connectionManager.pMax 10mW
param *.connectionManager.sat -89dBm
param *.connectionManager.sendDirect true
param *.manager.autoShutdown true
param *.manager.host "\"localhost\""
param *.manager.launchConfig "xmldoc(\"intersection.launchd.xml\")"
param *.manager.margin 25
param *.manager.moduleDisplayString "\"\""
param *.manager.moduleName "\"node\""
param *.manager.moduleType "\"org.car2x.veins.nodes.Car\""
param *.manager.port 9999
param *.manager.updateInterval 0.1s
param *.node[*].appl.beaconInterval 5s
param *.node[*].appl.beaconPriority 3
param *.node[*].appl.dataOnSch false
param *.node[*].appl.dataPriority 2
param *.node[*].appl.debug false
param *.node[*].appl.headerLength "256 bit"
param *.node[*].appl.maxOffset 0.5s
param *.node[*].appl.sendBeacons false
param *.node[*].appl.sendData true
param *.node[*].applType "\"VeinsVehicle\""
param *.node[*].mobilityType "\"TraCIMobility\""
param *.node[*].mobilityType.debug true
param *.node[*].veinsmobility.x 0
param *.node[*].veinsmobility.y 0
param *.node[*].veinsmobility.z 1.895
param *.node[*].veinsmobilityType "\"org.car2x.veins.modules.mobility.traci.TraCIMobility\""
param *.node[*].veinsmobilityType.debug true
param *.obstacles.debug false
param *.obstacles.obstacles "xmldoc(\"config.xml\", \"//AnalogueModel[@type='SimpleObstacleShadowing']/obstacles\")"
param *.playgroundSizeX 750m
param *.playgroundSizeY 750m
param *.playgroundSizeZ 50m
param *.rsu[*].appl.beaconInterval 2s
param *.rsu[*].appl.beaconPriority 3
param *.rsu[*].appl.dataOnSch false
param *.rsu[*].appl.dataPriority 2
param *.rsu[*].appl.debug false
param *.rsu[*].appl.headerLength "256 bit"
param *.rsu[*].appl.maxOffset 0.5s
param *.rsu[*].appl.sendBeacons true
param *.rsu[*].appl.sendData true
param *.rsu[*].applType "\"VeinsRSU\""
param *.rsu[0].mobility.x 250
param *.rsu[0].mobility.y 250
param *.rsu[0].mobility.z 3
param *.world.use2D false
param *.world.useTorus false

vector 4  intersection.node[0].veinsmobility  posx  ETV
vector 5  intersection.node[0].veinsmobility  posy  ETV
vector 6  intersection.node[0].veinsmobility  speed  ETV
vector 7  intersection.node[0].veinsmobility  acceleration  ETV
vector 8  intersection.node[0].veinsmobility  co2emission  ETV
vector 11  intersection.node[1].veinsmobility  posx  ETV
vector 12  intersection.node[1].veinsmobility  posy  ETV
vector 13  intersection.node[1].veinsmobility  speed  ETV
vector 14  intersection.node[1].veinsmobility  acceleration  ETV
vector 15  intersection.node[1].veinsmobility  co2emission  ETV
vector 18  intersection.node[2].veinsmobility  posx  ETV
vector 19  intersection.node[2].veinsmobility  posy  ETV
vector 20  intersection.node[2].veinsmobility  speed  ETV
vector 21  intersection.node[2].veinsmobility  acceleration  ETV
vector 22  intersection.node[2].veinsmobility  co2emission  ETV
vector 25  intersection.node[3].veinsmobility  posx  ETV
vector 26  intersection.node[3].veinsmobility  posy  ETV
vector 27  intersection.node[3].veinsmobility  speed  ETV
vector 28  intersection.node[3].veinsmobility  acceleration  ETV
vector 29  intersection.node[3].veinsmobility  co2em